
     RDKit          3D

  5  4  0  0  0  0  0  0  0  0999 V2000
    6.7543   -7.5987    0.6301 C   0  0  0  0  0  0  0  0  0  0  0  0
    7.7435   -8.6254    1.0169 C   0  0  0  0  0  0  0  0  0  0  0  0
    8.9420   -8.2628    1.1589 O   0  0  0  0  0  0  0  0  0  0  0  0
    7.4432   -9.9610    1.2173 O   0  0  0  0  0  0  0  0  0  0  0  0
    7.3686   -6.3507    0.5909 F   0  0  0  0  0  0  0  0  0  0  0  0
  1  2  1  0
  2  3  2  0
  2  4  1  0
  1  5  1  0
M  END
$$$$
