
     RDKit          3D

  5  4  0  0  0  0  0  0  0  0999 V2000
   16.5776   -4.5616   -0.2837 C   0  0  0  0  0  0  0  0  0  0  0  0
   15.5575   -5.3879   -0.9611 C   0  0  0  0  0  0  0  0  0  0  0  0
   14.6678   -5.9249   -0.2481 O   0  0  0  0  0  0  0  0  0  0  0  0
   15.5247   -5.6241   -2.3239 O   0  0  0  0  0  0  0  0  0  0  0  0
   16.2312   -4.3970    1.0540 F   0  0  0  0  0  0  0  0  0  0  0  0
  1  2  1  0
  2  3  2  0
  2  4  1  0
  1  5  1  0
M  END
$$$$
