
     RDKit          3D

  5  4  0  0  0  0  0  0  0  0999 V2000
  -16.8488  -17.3949   -0.5192 C   0  0  0  0  0  0  0  0  0  0  0  0
  -18.1313  -16.6630   -0.5598 C   0  0  0  0  0  0  0  0  0  0  0  0
  -18.0887  -15.4080   -0.6658 O   0  0  0  0  0  0  0  0  0  0  0  0
  -19.3747  -17.2634   -0.4726 O   0  0  0  0  0  0  0  0  0  0  0  0
  -15.7947  -16.4960   -0.6504 F   0  0  0  0  0  0  0  0  0  0  0  0
  1  2  1  0
  2  3  2  0
  2  4  1  0
  1  5  1  0
M  END
$$$$
