
     RDKit          3D

  5  4  0  0  0  0  0  0  0  0999 V2000
    7.8306   -6.7469    0.5692 C   0  0  0  0  0  0  0  0  0  0  0  0
    8.0120   -8.2045    0.7269 C   0  0  0  0  0  0  0  0  0  0  0  0
    7.8754   -8.6923    1.8808 O   0  0  0  0  0  0  0  0  0  0  0  0
    8.3380   -9.0658   -0.3055 O   0  0  0  0  0  0  0  0  0  0  0  0
    7.4247   -6.1939    1.7799 F   0  0  0  0  0  0  0  0  0  0  0  0
  1  2  1  0
  2  3  2  0
  2  4  1  0
  1  5  1  0
M  END
$$$$
