
     RDKit          3D

  5  4  0  0  0  0  0  0  0  0999 V2000
   -7.9529   -5.3363   14.8847 C   0  0  0  0  0  0  0  0  0  0  0  0
   -8.7420   -6.5561   14.6174 C   0  0  0  0  0  0  0  0  0  0  0  0
   -8.4941   -7.1968   13.5608 O   0  0  0  0  0  0  0  0  0  0  0  0
   -9.7459   -7.0317   15.4422 O   0  0  0  0  0  0  0  0  0  0  0  0
   -7.2397   -4.9829   13.7433 F   0  0  0  0  0  0  0  0  0  0  0  0
  1  2  1  0
  2  3  2  0
  2  4  1  0
  1  5  1  0
M  END
$$$$
