
     RDKit          3D

  5  4  0  0  0  0  0  0  0  0999 V2000
    4.3334    8.3979   -6.1698 C   0  0  0  0  0  0  0  0  0  0  0  0
    5.5518    8.5305   -7.0246 C   0  0  0  0  0  0  0  0  0  0  0  0
    6.0538    9.6706   -7.2567 O   0  0  0  0  0  0  0  0  0  0  0  0
    6.1808    7.4304   -7.5820 O   0  0  0  0  0  0  0  0  0  0  0  0
    3.9052    9.6961   -5.8502 F   0  0  0  0  0  0  0  0  0  0  0  0
  1  2  1  0
  2  3  2  0
  2  4  1  0
  1  5  1  0
M  END
$$$$
