
     RDKit          3D

  5  4  0  0  0  0  0  0  0  0999 V2000
    4.0888  -11.8838    7.1283 C   0  0  0  0  0  0  0  0  0  0  0  0
    3.6137  -13.0976    6.3977 C   0  0  0  0  0  0  0  0  0  0  0  0
    4.2721  -14.1790    6.4504 O   0  0  0  0  0  0  0  0  0  0  0  0
    2.4469  -13.0963    5.6528 O   0  0  0  0  0  0  0  0  0  0  0  0
    3.9739  -10.7961    6.2483 F   0  0  0  0  0  0  0  0  0  0  0  0
  1  2  1  0
  2  3  2  0
  2  4  1  0
  1  5  1  0
M  END
$$$$
