
     RDKit          3D

  5  4  0  0  0  0  0  0  0  0999 V2000
   10.5429  -15.6266    1.8915 C   0  0  0  0  0  0  0  0  0  0  0  0
   10.9996  -16.0821    0.5436 C   0  0  0  0  0  0  0  0  0  0  0  0
   10.2998  -16.8940   -0.1323 O   0  0  0  0  0  0  0  0  0  0  0  0
   12.1824  -15.6355   -0.0204 O   0  0  0  0  0  0  0  0  0  0  0  0
   11.6916  -15.3419    2.6466 F   0  0  0  0  0  0  0  0  0  0  0  0
  1  2  1  0
  2  3  2  0
  2  4  1  0
  1  5  1  0
M  END
$$$$
