
     RDKit          3D

  5  4  0  0  0  0  0  0  0  0999 V2000
    8.0452  -16.4182   -3.0855 C   0  0  0  0  0  0  0  0  0  0  0  0
    9.4939  -16.1113   -3.2849 C   0  0  0  0  0  0  0  0  0  0  0  0
    9.9847  -16.0539   -4.4518 O   0  0  0  0  0  0  0  0  0  0  0  0
   10.3462  -15.8695   -2.2212 O   0  0  0  0  0  0  0  0  0  0  0  0
    7.4777  -16.5952   -4.3573 F   0  0  0  0  0  0  0  0  0  0  0  0
  1  2  1  0
  2  3  2  0
  2  4  1  0
  1  5  1  0
M  END
$$$$
