
     RDKit          3D

  5  4  0  0  0  0  0  0  0  0999 V2000
    5.9462   13.7543    6.4284 C   0  0  0  0  0  0  0  0  0  0  0  0
    6.0994   14.1052    4.9841 C   0  0  0  0  0  0  0  0  0  0  0  0
    6.9630   14.9568    4.6170 O   0  0  0  0  0  0  0  0  0  0  0  0
    5.3244   13.5168    3.9994 O   0  0  0  0  0  0  0  0  0  0  0  0
    6.9176   14.4775    7.1383 F   0  0  0  0  0  0  0  0  0  0  0  0
  1  2  1  0
  2  3  2  0
  2  4  1  0
  1  5  1  0
M  END
$$$$
