
     RDKit          3D

  5  4  0  0  0  0  0  0  0  0999 V2000
   -0.6771  -14.9367   -1.9888 C   0  0  0  0  0  0  0  0  0  0  0  0
   -0.7538  -15.4769   -0.5978 C   0  0  0  0  0  0  0  0  0  0  0  0
   -1.8769  -15.6688   -0.0432 O   0  0  0  0  0  0  0  0  0  0  0  0
    0.3802  -15.7963    0.1293 O   0  0  0  0  0  0  0  0  0  0  0  0
   -1.9735  -14.9817   -2.5255 F   0  0  0  0  0  0  0  0  0  0  0  0
  1  2  1  0
  2  3  2  0
  2  4  1  0
  1  5  1  0
M  END
$$$$
