
     RDKit          3D

 25 24  0  0  0  0  0  0  0  0999 V2000
    6.2662   -3.8123  -10.0489 C   0  0  0  0  0  0  0  0  0  0  0  0
    6.6081   -2.6267  -10.0819 O   0  0  0  0  0  0  0  0  0  0  0  0
    5.4556   -4.4941   -9.0361 C   0  0  0  0  0  0  0  0  0  0  0  0
    5.0158   -3.6373   -7.8809 C   0  0  0  0  0  0  0  0  0  0  0  0
    3.9106   -4.1453   -7.0524 C   0  0  0  0  0  0  0  0  0  0  0  0
    3.6776   -3.5422   -5.7079 C   0  0  0  0  0  0  0  0  0  0  0  0
    2.6046   -4.0689   -4.8543 C   0  0  0  0  0  0  0  0  0  0  0  0
    2.5344   -3.5261   -3.4489 C   0  0  0  0  0  0  0  0  0  0  0  0
    1.2768   -3.7379   -2.7020 C   0  0  0  0  0  0  0  0  0  0  0  0
    0.2663   -2.8468   -2.9992 F   0  0  0  0  0  0  0  0  0  0  0  0
    0.8700   -5.0503   -2.6197 F   0  0  0  0  0  0  0  0  0  0  0  0
    1.6011   -3.4139   -1.3540 F   0  0  0  0  0  0  0  0  0  0  0  0
    3.5693   -4.0474   -2.6616 F   0  0  0  0  0  0  0  0  0  0  0  0
    2.8278   -2.1763   -3.5520 F   0  0  0  0  0  0  0  0  0  0  0  0
    1.3572   -3.7041   -5.4012 F   0  0  0  0  0  0  0  0  0  0  0  0
    2.5955   -5.4451   -4.7803 F   0  0  0  0  0  0  0  0  0  0  0  0
    4.8934   -3.7728   -5.0187 F   0  0  0  0  0  0  0  0  0  0  0  0
    3.6305   -2.1670   -5.8770 F   0  0  0  0  0  0  0  0  0  0  0  0
    2.7074   -4.2349   -7.7610 F   0  0  0  0  0  0  0  0  0  0  0  0
    4.2120   -5.5099   -6.7713 F   0  0  0  0  0  0  0  0  0  0  0  0
    6.1440   -3.2927   -7.1897 F   0  0  0  0  0  0  0  0  0  0  0  0
    4.5812   -2.4326   -8.4991 F   0  0  0  0  0  0  0  0  0  0  0  0
    6.2753   -5.5165   -8.5230 F   0  0  0  0  0  0  0  0  0  0  0  0
    4.3813   -5.1777   -9.6005 F   0  0  0  0  0  0  0  0  0  0  0  0
    6.7130   -4.6103  -11.1224 O   0  0  0  0  0  0  0  0  0  0  0  0
  1  2  2  0
  1  3  1  0
  3  4  1  0
  4  5  1  0
  5  6  1  0
  6  7  1  0
  7  8  1  0
  8  9  1  0
  9 10  1  0
  9 11  1  0
  9 12  1  0
  8 13  1  0
  8 14  1  0
  7 15  1  0
  7 16  1  0
  6 17  1  0
  6 18  1  0
  5 19  1  0
  5 20  1  0
  4 21  1  0
  4 22  1  0
  3 23  1  0
  3 24  1  0
  1 25  1  0
M  END
$$$$
