
     RDKit          3D

 25 24  0  0  0  0  0  0  0  0999 V2000
    7.0330   -1.3869   -9.1286 C   0  0  0  0  0  0  0  0  0  0  0  0
    7.8013   -0.8531   -8.3236 O   0  0  0  0  0  0  0  0  0  0  0  0
    5.9102   -2.2867   -8.8503 C   0  0  0  0  0  0  0  0  0  0  0  0
    5.4857   -2.3585   -7.4092 C   0  0  0  0  0  0  0  0  0  0  0  0
    4.3447   -3.2313   -7.0894 C   0  0  0  0  0  0  0  0  0  0  0  0
    3.8609   -3.3025   -5.6800 C   0  0  0  0  0  0  0  0  0  0  0  0
    2.9639   -4.3935   -5.2767 C   0  0  0  0  0  0  0  0  0  0  0  0
    2.3427   -4.2831   -3.9068 C   0  0  0  0  0  0  0  0  0  0  0  0
    1.3379   -5.3006   -3.5336 C   0  0  0  0  0  0  0  0  0  0  0  0
    1.7855   -6.6048   -3.5803 F   0  0  0  0  0  0  0  0  0  0  0  0
    0.5966   -4.9948   -2.4149 F   0  0  0  0  0  0  0  0  0  0  0  0
    0.3758   -5.2563   -4.5822 F   0  0  0  0  0  0  0  0  0  0  0  0
    3.3278   -4.2979   -2.9108 F   0  0  0  0  0  0  0  0  0  0  0  0
    1.8052   -3.0083   -3.8393 F   0  0  0  0  0  0  0  0  0  0  0  0
    1.8453   -4.4140   -6.1349 F   0  0  0  0  0  0  0  0  0  0  0  0
    3.5428   -5.6397   -5.3826 F   0  0  0  0  0  0  0  0  0  0  0  0
    5.0480   -3.4533   -4.9222 F   0  0  0  0  0  0  0  0  0  0  0  0
    3.3919   -2.0423   -5.3423 F   0  0  0  0  0  0  0  0  0  0  0  0
    3.2687   -3.0485   -7.9650 F   0  0  0  0  0  0  0  0  0  0  0  0
    4.7625   -4.5631   -7.3788 F   0  0  0  0  0  0  0  0  0  0  0  0
    6.6144   -2.5915   -6.6737 F   0  0  0  0  0  0  0  0  0  0  0  0
    5.1142   -1.0213   -7.0988 F   0  0  0  0  0  0  0  0  0  0  0  0
    6.3508   -3.5679   -9.2309 F   0  0  0  0  0  0  0  0  0  0  0  0
    4.8251   -2.0429   -9.6888 F   0  0  0  0  0  0  0  0  0  0  0  0
    7.2663   -1.0925  -10.4879 O   0  0  0  0  0  0  0  0  0  0  0  0
  1  2  2  0
  1  3  1  0
  3  4  1  0
  4  5  1  0
  5  6  1  0
  6  7  1  0
  7  8  1  0
  8  9  1  0
  9 10  1  0
  9 11  1  0
  9 12  1  0
  8 13  1  0
  8 14  1  0
  7 15  1  0
  7 16  1  0
  6 17  1  0
  6 18  1  0
  5 19  1  0
  5 20  1  0
  4 21  1  0
  4 22  1  0
  3 23  1  0
  3 24  1  0
  1 25  1  0
M  END
$$$$
