
     RDKit          3D

 25 24  0  0  0  0  0  0  0  0999 V2000
  -11.0099   -7.1704   -3.9639 C   0  0  0  0  0  0  0  0  0  0  0  0
  -10.7468   -7.8211   -2.9486 O   0  0  0  0  0  0  0  0  0  0  0  0
  -10.0834   -6.4669   -4.8552 C   0  0  0  0  0  0  0  0  0  0  0  0
   -8.6534   -6.9283   -4.7901 C   0  0  0  0  0  0  0  0  0  0  0  0
   -7.6656   -6.1606   -5.5654 C   0  0  0  0  0  0  0  0  0  0  0  0
   -6.2191   -6.2898   -5.2241 C   0  0  0  0  0  0  0  0  0  0  0  0
   -5.4336   -5.0836   -4.9317 C   0  0  0  0  0  0  0  0  0  0  0  0
   -3.9482   -5.2742   -4.7527 C   0  0  0  0  0  0  0  0  0  0  0  0
   -3.1926   -4.1674   -4.1295 C   0  0  0  0  0  0  0  0  0  0  0  0
   -3.7388   -3.6747   -2.9622 F   0  0  0  0  0  0  0  0  0  0  0  0
   -1.8297   -4.3547   -4.0834 F   0  0  0  0  0  0  0  0  0  0  0  0
   -3.3397   -3.0782   -5.0347 F   0  0  0  0  0  0  0  0  0  0  0  0
   -3.6812   -6.4251   -3.9999 F   0  0  0  0  0  0  0  0  0  0  0  0
   -3.4518   -5.5650   -6.0126 F   0  0  0  0  0  0  0  0  0  0  0  0
   -5.5134   -4.2022   -6.0295 F   0  0  0  0  0  0  0  0  0  0  0  0
   -5.9063   -4.3775   -3.8466 F   0  0  0  0  0  0  0  0  0  0  0  0
   -6.2191   -7.0695   -4.0415 F   0  0  0  0  0  0  0  0  0  0  0  0
   -5.6430   -7.1113   -6.1807 F   0  0  0  0  0  0  0  0  0  0  0  0
   -7.8533   -6.2867   -6.9462 F   0  0  0  0  0  0  0  0  0  0  0  0
   -7.9534   -4.7838   -5.3336 F   0  0  0  0  0  0  0  0  0  0  0  0
   -8.3483   -7.0913   -3.4675 F   0  0  0  0  0  0  0  0  0  0  0  0
   -8.6983   -8.2463   -5.3223 F   0  0  0  0  0  0  0  0  0  0  0  0
  -10.1176   -5.1204   -4.4476 F   0  0  0  0  0  0  0  0  0  0  0  0
  -10.5473   -6.4312   -6.1681 F   0  0  0  0  0  0  0  0  0  0  0  0
  -12.3753   -7.0956   -4.3086 O   0  0  0  0  0  0  0  0  0  0  0  0
  1  2  2  0
  1  3  1  0
  3  4  1  0
  4  5  1  0
  5  6  1  0
  6  7  1  0
  7  8  1  0
  8  9  1  0
  9 10  1  0
  9 11  1  0
  9 12  1  0
  8 13  1  0
  8 14  1  0
  7 15  1  0
  7 16  1  0
  6 17  1  0
  6 18  1  0
  5 19  1  0
  5 20  1  0
  4 21  1  0
  4 22  1  0
  3 23  1  0
  3 24  1  0
  1 25  1  0
M  END
$$$$
