
     RDKit          3D

 25 24  0  0  0  0  0  0  0  0999 V2000
    6.3463   -2.4741   -9.7227 C   0  0  0  0  0  0  0  0  0  0  0  0
    6.2727   -3.4281  -10.5024 O   0  0  0  0  0  0  0  0  0  0  0  0
    5.7073   -2.3229   -8.4125 C   0  0  0  0  0  0  0  0  0  0  0  0
    4.9220   -3.5148   -7.9387 C   0  0  0  0  0  0  0  0  0  0  0  0
    4.2608   -3.4039   -6.6285 C   0  0  0  0  0  0  0  0  0  0  0  0
    3.0877   -4.2771   -6.3337 C   0  0  0  0  0  0  0  0  0  0  0  0
    2.3354   -4.0825   -5.0872 C   0  0  0  0  0  0  0  0  0  0  0  0
    1.7967   -5.3257   -4.4247 C   0  0  0  0  0  0  0  0  0  0  0  0
    1.3537   -5.2078   -3.0196 C   0  0  0  0  0  0  0  0  0  0  0  0
    0.3988   -6.1248   -2.6317 F   0  0  0  0  0  0  0  0  0  0  0  0
    2.3697   -5.0267   -2.1087 F   0  0  0  0  0  0  0  0  0  0  0  0
    0.6483   -3.9720   -2.9683 F   0  0  0  0  0  0  0  0  0  0  0  0
    0.7184   -5.8489   -5.1499 F   0  0  0  0  0  0  0  0  0  0  0  0
    2.7918   -6.2807   -4.5517 F   0  0  0  0  0  0  0  0  0  0  0  0
    3.1947   -3.5441   -4.1075 F   0  0  0  0  0  0  0  0  0  0  0  0
    1.2982   -3.1837   -5.2136 F   0  0  0  0  0  0  0  0  0  0  0  0
    2.1897   -4.0066   -7.3951 F   0  0  0  0  0  0  0  0  0  0  0  0
    3.4879   -5.5877   -6.5438 F   0  0  0  0  0  0  0  0  0  0  0  0
    5.1702   -3.4347   -5.5654 F   0  0  0  0  0  0  0  0  0  0  0  0
    3.7344   -2.0813   -6.5534 F   0  0  0  0  0  0  0  0  0  0  0  0
    4.1031   -3.8860   -8.9686 F   0  0  0  0  0  0  0  0  0  0  0  0
    5.8949   -4.5484   -7.8516 F   0  0  0  0  0  0  0  0  0  0  0  0
    4.8103   -1.2475   -8.5526 F   0  0  0  0  0  0  0  0  0  0  0  0
    6.6048   -1.8860   -7.4410 F   0  0  0  0  0  0  0  0  0  0  0  0
    7.1470   -1.3939  -10.1479 O   0  0  0  0  0  0  0  0  0  0  0  0
  1  2  2  0
  1  3  1  0
  3  4  1  0
  4  5  1  0
  5  6  1  0
  6  7  1  0
  7  8  1  0
  8  9  1  0
  9 10  1  0
  9 11  1  0
  9 12  1  0
  8 13  1  0
  8 14  1  0
  7 15  1  0
  7 16  1  0
  6 17  1  0
  6 18  1  0
  5 19  1  0
  5 20  1  0
  4 21  1  0
  4 22  1  0
  3 23  1  0
  3 24  1  0
  1 25  1  0
M  END
$$$$
