
     RDKit          3D

 29 28  0  0  0  0  0  0  0  0999 V2000
   10.4801   -5.5293    9.3893 C   0  0  0  0  0  0  0  0  0  0  0  0
   11.6586   -6.2170   10.0416 C   0  0  0  0  0  0  0  0  0  0  0  0
   12.8846   -5.4029   10.1780 C   0  0  0  0  0  0  0  0  0  0  0  0
   14.1438   -6.1209   10.5243 C   0  0  0  0  0  0  0  0  0  0  0  0
   15.4019   -5.3275   10.4204 C   0  0  0  0  0  0  0  0  0  0  0  0
   15.4994   -4.1904   11.1432 F   0  0  0  0  0  0  0  0  0  0  0  0
   15.6454   -4.9696    9.0860 F   0  0  0  0  0  0  0  0  0  0  0  0
   16.8232   -6.3599   10.8386 S   0  0  0  0  0  0  0  0  0  0  0  0
   16.6669   -6.8261   12.2408 O   0  0  0  0  0  0  0  0  0  0  0  0
   16.8167   -7.5256    9.9055 O   0  0  0  0  0  0  0  0  0  0  0  0
   18.1867   -5.3925   10.6136 O   0  0  0  0  0  0  0  0  0  0  0  0
   14.0236   -6.6887   11.8140 F   0  0  0  0  0  0  0  0  0  0  0  0
   14.2620   -7.1919    9.6333 F   0  0  0  0  0  0  0  0  0  0  0  0
   12.7738   -4.3957   11.1601 F   0  0  0  0  0  0  0  0  0  0  0  0
   13.1722   -4.7601    8.9478 F   0  0  0  0  0  0  0  0  0  0  0  0
   11.9619   -7.2878    9.1758 F   0  0  0  0  0  0  0  0  0  0  0  0
   11.1769   -6.7961   11.1722 F   0  0  0  0  0  0  0  0  0  0  0  0
    9.1541   -6.1281    9.4659 C   0  0  0  0  0  0  0  0  0  0  0  0
    7.9198   -5.3092    9.3187 C   0  0  0  0  0  0  0  0  0  0  0  0
    6.6196   -5.9872    9.5970 C   0  0  0  0  0  0  0  0  0  0  0  0
    6.4809   -7.0977    8.7674 F   0  0  0  0  0  0  0  0  0  0  0  0
    6.4510   -6.3874   10.8767 F   0  0  0  0  0  0  0  0  0  0  0  0
    5.5765   -5.0867    9.3430 F   0  0  0  0  0  0  0  0  0  0  0  0
    7.9850   -4.1433   10.1046 F   0  0  0  0  0  0  0  0  0  0  0  0
    7.8904   -4.8705    7.9684 F   0  0  0  0  0  0  0  0  0  0  0  0
    9.1102   -6.7061   10.7882 F   0  0  0  0  0  0  0  0  0  0  0  0
    8.9824   -7.2577    8.6739 F   0  0  0  0  0  0  0  0  0  0  0  0
   10.4722   -4.2118    9.9257 F   0  0  0  0  0  0  0  0  0  0  0  0
   10.8307   -5.3070    8.0592 F   0  0  0  0  0  0  0  0  0  0  0  0
  1  2  1  0
  2  3  1  0
  3  4  1  0
  4  5  1  0
  5  6  1  0
  5  7  1  0
  5  8  1  0
  8  9  2  0
  8 10  2  0
  8 11  1  0
  4 12  1  0
  4 13  1  0
  3 14  1  0
  3 15  1  0
  2 16  1  0
  2 17  1  0
  1 18  1  0
 18 19  1  0
 19 20  1  0
 20 21  1  0
 20 22  1  0
 20 23  1  0
 19 24  1  0
 19 25  1  0
 18 26  1  0
 18 27  1  0
  1 28  1  0
  1 29  1  0
M  END
$$$$
