
     RDKit          3D

 29 28  0  0  0  0  0  0  0  0999 V2000
    8.6357   -5.4451   10.8272 C   0  0  0  0  0  0  0  0  0  0  0  0
    9.8408   -5.8076    9.9883 C   0  0  0  0  0  0  0  0  0  0  0  0
   10.9778   -4.8655   10.0534 C   0  0  0  0  0  0  0  0  0  0  0  0
   12.3486   -5.4484   10.0076 C   0  0  0  0  0  0  0  0  0  0  0  0
   13.4776   -4.4801   10.1116 C   0  0  0  0  0  0  0  0  0  0  0  0
   13.5854   -3.7463   11.2407 F   0  0  0  0  0  0  0  0  0  0  0  0
   13.4371   -3.5658    9.0485 F   0  0  0  0  0  0  0  0  0  0  0  0
   15.0508   -5.3320    9.8659 S   0  0  0  0  0  0  0  0  0  0  0  0
   16.1510   -4.3802   10.1684 O   0  0  0  0  0  0  0  0  0  0  0  0
   15.0885   -6.4810   10.8188 O   0  0  0  0  0  0  0  0  0  0  0  0
   15.0540   -5.8554    8.2623 O   0  0  0  0  0  0  0  0  0  0  0  0
   12.4674   -6.4529   10.9961 F   0  0  0  0  0  0  0  0  0  0  0  0
   12.4773   -6.0942    8.7741 F   0  0  0  0  0  0  0  0  0  0  0  0
   10.9729   -4.0720   11.2202 F   0  0  0  0  0  0  0  0  0  0  0  0
   10.9327   -3.9830    8.9451 F   0  0  0  0  0  0  0  0  0  0  0  0
    9.3612   -5.7931    8.6623 F   0  0  0  0  0  0  0  0  0  0  0  0
   10.1077   -7.1120   10.2582 F   0  0  0  0  0  0  0  0  0  0  0  0
    7.7488   -6.4917   11.3177 C   0  0  0  0  0  0  0  0  0  0  0  0
    6.5841   -6.1800   12.1907 C   0  0  0  0  0  0  0  0  0  0  0  0
    5.8081   -7.3380   12.7242 C   0  0  0  0  0  0  0  0  0  0  0  0
    4.4833   -6.9609   12.9324 F   0  0  0  0  0  0  0  0  0  0  0  0
    5.8199   -8.4384   11.9398 F   0  0  0  0  0  0  0  0  0  0  0  0
    6.3725   -7.7376   13.9429 F   0  0  0  0  0  0  0  0  0  0  0  0
    6.9634   -5.3673   13.2755 F   0  0  0  0  0  0  0  0  0  0  0  0
    5.6956   -5.3975   11.4065 F   0  0  0  0  0  0  0  0  0  0  0  0
    8.6187   -7.3533   12.0827 F   0  0  0  0  0  0  0  0  0  0  0  0
    7.2938   -7.3697   10.3407 F   0  0  0  0  0  0  0  0  0  0  0  0
    9.1494   -4.6709   11.9044 F   0  0  0  0  0  0  0  0  0  0  0  0
    7.9108   -4.5018   10.1019 F   0  0  0  0  0  0  0  0  0  0  0  0
  1  2  1  0
  2  3  1  0
  3  4  1  0
  4  5  1  0
  5  6  1  0
  5  7  1  0
  5  8  1  0
  8  9  2  0
  8 10  2  0
  8 11  1  0
  4 12  1  0
  4 13  1  0
  3 14  1  0
  3 15  1  0
  2 16  1  0
  2 17  1  0
  1 18  1  0
 18 19  1  0
 19 20  1  0
 20 21  1  0
 20 22  1  0
 20 23  1  0
 19 24  1  0
 19 25  1  0
 18 26  1  0
 18 27  1  0
  1 28  1  0
  1 29  1  0
M  END
$$$$
