
     RDKit          3D

 29 28  0  0  0  0  0  0  0  0999 V2000
   10.2600   -5.6167    9.6422 C   0  0  0  0  0  0  0  0  0  0  0  0
   11.7070   -5.7750    9.2316 C   0  0  0  0  0  0  0  0  0  0  0  0
   12.6893   -5.8124   10.3353 C   0  0  0  0  0  0  0  0  0  0  0  0
   14.0830   -5.3885   10.0212 C   0  0  0  0  0  0  0  0  0  0  0  0
   15.0845   -5.5645   11.1117 C   0  0  0  0  0  0  0  0  0  0  0  0
   15.1727   -6.7743   11.7062 F   0  0  0  0  0  0  0  0  0  0  0  0
   14.8581   -4.6353   12.1380 F   0  0  0  0  0  0  0  0  0  0  0  0
   16.7333   -5.1310   10.5164 S   0  0  0  0  0  0  0  0  0  0  0  0
   17.1548   -6.1505    9.5210 O   0  0  0  0  0  0  0  0  0  0  0  0
   16.6340   -3.7896    9.8678 O   0  0  0  0  0  0  0  0  0  0  0  0
   17.7268   -5.0894   11.8789 O   0  0  0  0  0  0  0  0  0  0  0  0
   14.5187   -6.0363    8.8418 F   0  0  0  0  0  0  0  0  0  0  0  0
   14.0380   -4.0227    9.7251 F   0  0  0  0  0  0  0  0  0  0  0  0
   12.8330   -7.0953   10.9050 F   0  0  0  0  0  0  0  0  0  0  0  0
   12.2793   -4.9362   11.3713 F   0  0  0  0  0  0  0  0  0  0  0  0
   11.9816   -4.6229    8.4663 F   0  0  0  0  0  0  0  0  0  0  0  0
   11.7361   -6.8068    8.3482 F   0  0  0  0  0  0  0  0  0  0  0  0
    9.2088   -5.6562    8.6342 C   0  0  0  0  0  0  0  0  0  0  0  0
    7.7784   -5.4516    8.9919 C   0  0  0  0  0  0  0  0  0  0  0  0
    6.9129   -4.7900    7.9718 C   0  0  0  0  0  0  0  0  0  0  0  0
    7.4913   -3.5872    7.5724 F   0  0  0  0  0  0  0  0  0  0  0  0
    6.6673   -5.5317    6.8692 F   0  0  0  0  0  0  0  0  0  0  0  0
    5.6584   -4.5335    8.5408 F   0  0  0  0  0  0  0  0  0  0  0  0
    7.1686   -6.6634    9.3671 F   0  0  0  0  0  0  0  0  0  0  0  0
    7.7703   -4.6329   10.1522 F   0  0  0  0  0  0  0  0  0  0  0  0
    9.3092   -6.9856    8.0801 F   0  0  0  0  0  0  0  0  0  0  0  0
    9.4560   -4.8777    7.5093 F   0  0  0  0  0  0  0  0  0  0  0  0
   10.0435   -6.6087   10.6385 F   0  0  0  0  0  0  0  0  0  0  0  0
   10.1780   -4.4350   10.3759 F   0  0  0  0  0  0  0  0  0  0  0  0
  1  2  1  0
  2  3  1  0
  3  4  1  0
  4  5  1  0
  5  6  1  0
  5  7  1  0
  5  8  1  0
  8  9  2  0
  8 10  2  0
  8 11  1  0
  4 12  1  0
  4 13  1  0
  3 14  1  0
  3 15  1  0
  2 16  1  0
  2 17  1  0
  1 18  1  0
 18 19  1  0
 19 20  1  0
 20 21  1  0
 20 22  1  0
 20 23  1  0
 19 24  1  0
 19 25  1  0
 18 26  1  0
 18 27  1  0
  1 28  1  0
  1 29  1  0
M  END
$$$$
