
     RDKit          3D

 29 28  0  0  0  0  0  0  0  0999 V2000
    9.3325   -5.8510   10.0513 C   0  0  0  0  0  0  0  0  0  0  0  0
   10.5282   -4.9317    9.9397 C   0  0  0  0  0  0  0  0  0  0  0  0
   11.4749   -5.2363    8.8462 C   0  0  0  0  0  0  0  0  0  0  0  0
   12.5196   -4.2167    8.5461 C   0  0  0  0  0  0  0  0  0  0  0  0
   13.4436   -4.5351    7.4202 C   0  0  0  0  0  0  0  0  0  0  0  0
   12.9280   -4.6057    6.1735 F   0  0  0  0  0  0  0  0  0  0  0  0
   14.0909   -5.7583    7.6499 F   0  0  0  0  0  0  0  0  0  0  0  0
   14.8036   -3.3480    7.3785 S   0  0  0  0  0  0  0  0  0  0  0  0
   14.2327   -1.9879    7.1995 O   0  0  0  0  0  0  0  0  0  0  0  0
   15.5143   -3.4388    8.6886 O   0  0  0  0  0  0  0  0  0  0  0  0
   15.7974   -3.8194    6.0996 O   0  0  0  0  0  0  0  0  0  0  0  0
   11.9060   -2.9591    8.3404 F   0  0  0  0  0  0  0  0  0  0  0  0
   13.3058   -4.0866    9.6950 F   0  0  0  0  0  0  0  0  0  0  0  0
   10.8365   -5.4593    7.6077 F   0  0  0  0  0  0  0  0  0  0  0  0
   12.2066   -6.4093    9.1589 F   0  0  0  0  0  0  0  0  0  0  0  0
   11.2214   -5.1102   11.1546 F   0  0  0  0  0  0  0  0  0  0  0  0
   10.0356   -3.6667    9.9911 F   0  0  0  0  0  0  0  0  0  0  0  0
    8.4013   -5.7024   11.1618 C   0  0  0  0  0  0  0  0  0  0  0  0
    7.5565   -6.8362   11.6273 C   0  0  0  0  0  0  0  0  0  0  0  0
    6.5305   -6.5340   12.6683 C   0  0  0  0  0  0  0  0  0  0  0  0
    5.8328   -7.6954   12.9926 F   0  0  0  0  0  0  0  0  0  0  0  0
    7.0197   -5.9983   13.8084 F   0  0  0  0  0  0  0  0  0  0  0  0
    5.6356   -5.5837   12.1588 F   0  0  0  0  0  0  0  0  0  0  0  0
    6.9140   -7.4699   10.5471 F   0  0  0  0  0  0  0  0  0  0  0  0
    8.4462   -7.7988   12.1737 F   0  0  0  0  0  0  0  0  0  0  0  0
    7.4961   -4.6682   10.7197 F   0  0  0  0  0  0  0  0  0  0  0  0
    8.9449   -5.1146   12.2984 F   0  0  0  0  0  0  0  0  0  0  0  0
    8.6562   -5.7376    8.8050 F   0  0  0  0  0  0  0  0  0  0  0  0
    9.8226   -7.1545   10.0065 F   0  0  0  0  0  0  0  0  0  0  0  0
  1  2  1  0
  2  3  1  0
  3  4  1  0
  4  5  1  0
  5  6  1  0
  5  7  1  0
  5  8  1  0
  8  9  2  0
  8 10  2  0
  8 11  1  0
  4 12  1  0
  4 13  1  0
  3 14  1  0
  3 15  1  0
  2 16  1  0
  2 17  1  0
  1 18  1  0
 18 19  1  0
 19 20  1  0
 20 21  1  0
 20 22  1  0
 20 23  1  0
 19 24  1  0
 19 25  1  0
 18 26  1  0
 18 27  1  0
  1 28  1  0
  1 29  1  0
M  END
$$$$
