
     RDKit          3D

 29 28  0  0  0  0  0  0  0  0999 V2000
    7.9713   -6.2186   11.3173 C   0  0  0  0  0  0  0  0  0  0  0  0
    9.4620   -5.9920   11.4349 C   0  0  0  0  0  0  0  0  0  0  0  0
   10.1466   -5.5561   10.1996 C   0  0  0  0  0  0  0  0  0  0  0  0
   11.6367   -5.5783   10.2027 C   0  0  0  0  0  0  0  0  0  0  0  0
   12.3081   -4.7283    9.1782 C   0  0  0  0  0  0  0  0  0  0  0  0
   12.0997   -3.3943    9.2213 F   0  0  0  0  0  0  0  0  0  0  0  0
   11.9486   -5.1429    7.8871 F   0  0  0  0  0  0  0  0  0  0  0  0
   14.0929   -5.0003    9.2188 S   0  0  0  0  0  0  0  0  0  0  0  0
   14.7463   -3.9432    8.4043 O   0  0  0  0  0  0  0  0  0  0  0  0
   14.5272   -4.8936   10.6435 O   0  0  0  0  0  0  0  0  0  0  0  0
   14.3438   -6.5526    8.6082 O   0  0  0  0  0  0  0  0  0  0  0  0
   12.1104   -5.2588   11.4964 F   0  0  0  0  0  0  0  0  0  0  0  0
   12.0264   -6.8984    9.9568 F   0  0  0  0  0  0  0  0  0  0  0  0
    9.8162   -4.2380    9.8195 F   0  0  0  0  0  0  0  0  0  0  0  0
    9.7835   -6.4065    9.1252 F   0  0  0  0  0  0  0  0  0  0  0  0
    9.9822   -7.2572   11.7770 F   0  0  0  0  0  0  0  0  0  0  0  0
    9.6389   -5.2216   12.5397 F   0  0  0  0  0  0  0  0  0  0  0  0
    7.2278   -6.7695   12.4426 C   0  0  0  0  0  0  0  0  0  0  0  0
    5.7635   -7.0241   12.3592 C   0  0  0  0  0  0  0  0  0  0  0  0
    5.0722   -7.4233   13.6203 C   0  0  0  0  0  0  0  0  0  0  0  0
    5.2076   -6.4141   14.5710 F   0  0  0  0  0  0  0  0  0  0  0  0
    3.7578   -7.7050   13.4819 F   0  0  0  0  0  0  0  0  0  0  0  0
    5.6606   -8.5986   14.1060 F   0  0  0  0  0  0  0  0  0  0  0  0
    5.0840   -5.9173   11.8163 F   0  0  0  0  0  0  0  0  0  0  0  0
    5.5949   -8.0829   11.4280 F   0  0  0  0  0  0  0  0  0  0  0  0
    7.4182   -5.7980   13.4934 F   0  0  0  0  0  0  0  0  0  0  0  0
    7.7990   -7.8998   13.0161 F   0  0  0  0  0  0  0  0  0  0  0  0
    7.4325   -4.9632   10.9207 F   0  0  0  0  0  0  0  0  0  0  0  0
    7.7723   -7.0002   10.1811 F   0  0  0  0  0  0  0  0  0  0  0  0
  1  2  1  0
  2  3  1  0
  3  4  1  0
  4  5  1  0
  5  6  1  0
  5  7  1  0
  5  8  1  0
  8  9  2  0
  8 10  2  0
  8 11  1  0
  4 12  1  0
  4 13  1  0
  3 14  1  0
  3 15  1  0
  2 16  1  0
  2 17  1  0
  1 18  1  0
 18 19  1  0
 19 20  1  0
 20 21  1  0
 20 22  1  0
 20 23  1  0
 19 24  1  0
 19 25  1  0
 18 26  1  0
 18 27  1  0
  1 28  1  0
  1 29  1  0
M  END
$$$$
