
     RDKit          3D

  4  3  0  0  0  0  0  0  0  0999 V2000
  -10.3255   -0.7671    0.6327 C   0  0  0  0  0  0  0  0  0  0  0  0
   -9.6830   -0.6790   -0.7313 C   0  0  0  0  0  0  0  0  0  0  0  0
   -8.1029   -1.5291   -0.6972 Cl  0  0  0  0  0  0  0  0  0  0  0  0
  -12.0150   -1.2922    0.4935 Cl  0  0  0  0  0  0  0  0  0  0  0  0
  1  2  1  0
  2  3  1  0
  1  4  1  0
M  END
$$$$
