
     RDKit          3D

  5  4  0  0  0  0  0  0  0  0999 V2000
   -1.4602  -11.0630   -3.0542 C   0  0  0  0  0  0  0  0  0  0  0  0
   -0.0554  -10.7400   -2.7302 C   0  0  0  0  0  0  0  0  0  0  0  0
    0.7590  -11.6194   -2.3014 O   0  0  0  0  0  0  0  0  0  0  0  0
    0.3461   -9.4126   -2.9180 O   0  0  0  0  0  0  0  0  0  0  0  0
   -2.0303  -11.5549   -1.8827 F   0  0  0  0  0  0  0  0  0  0  0  0
  1  2  1  0
  2  3  2  0
  2  4  1  0
  1  5  1  0
M  END
$$$$
