
     RDKit          3D

  5  4  0  0  0  0  0  0  0  0999 V2000
   -0.8258   -5.6724   16.9707 C   0  0  0  0  0  0  0  0  0  0  0  0
   -0.6674   -5.1231   18.3330 C   0  0  0  0  0  0  0  0  0  0  0  0
    0.1537   -4.1856   18.5927 O   0  0  0  0  0  0  0  0  0  0  0  0
   -1.4677   -5.6823   19.3356 O   0  0  0  0  0  0  0  0  0  0  0  0
   -2.1630   -5.4903   16.6268 F   0  0  0  0  0  0  0  0  0  0  0  0
  1  2  1  0
  2  3  2  0
  2  4  1  0
  1  5  1  0
M  END
$$$$
