
     RDKit          3D

  5  4  0  0  0  0  0  0  0  0999 V2000
   -9.5204    2.7101  -18.6804 C   0  0  0  0  0  0  0  0  0  0  0  0
   -9.3556    1.4545  -19.4413 C   0  0  0  0  0  0  0  0  0  0  0  0
  -10.3093    0.9373  -20.1072 O   0  0  0  0  0  0  0  0  0  0  0  0
   -8.0928    0.8526  -19.3994 O   0  0  0  0  0  0  0  0  0  0  0  0
   -8.9412    2.4922  -17.4328 F   0  0  0  0  0  0  0  0  0  0  0  0
  1  2  1  0
  2  3  2  0
  2  4  1  0
  1  5  1  0
M  END
$$$$
