
     RDKit          3D

  5  4  0  0  0  0  0  0  0  0999 V2000
    2.8842   -7.4507   -7.0831 C   0  0  0  0  0  0  0  0  0  0  0  0
    2.8467   -8.8466   -7.5655 C   0  0  0  0  0  0  0  0  0  0  0  0
    2.7964   -9.1325   -8.8050 O   0  0  0  0  0  0  0  0  0  0  0  0
    2.8705   -9.8515   -6.5917 O   0  0  0  0  0  0  0  0  0  0  0  0
    2.8296   -6.6421   -8.2156 F   0  0  0  0  0  0  0  0  0  0  0  0
  1  2  1  0
  2  3  2  0
  2  4  1  0
  1  5  1  0
M  END
$$$$
