
     RDKit          3D

  5  4  0  0  0  0  0  0  0  0999 V2000
    6.9134  -17.4303    5.4516 C   0  0  0  0  0  0  0  0  0  0  0  0
    8.2660  -17.3348    6.0563 C   0  0  0  0  0  0  0  0  0  0  0  0
    9.3065  -17.5977    5.4227 O   0  0  0  0  0  0  0  0  0  0  0  0
    8.3804  -16.9375    7.3787 O   0  0  0  0  0  0  0  0  0  0  0  0
    7.0096  -17.8590    4.1558 F   0  0  0  0  0  0  0  0  0  0  0  0
  1  2  1  0
  2  3  2  0
  2  4  1  0
  1  5  1  0
M  END
$$$$
