
     RDKit          3D

  5  4  0  0  0  0  0  0  0  0999 V2000
   13.1662   -9.5449   -9.7973 C   0  0  0  0  0  0  0  0  0  0  0  0
   14.0879   -9.4187  -10.9544 C   0  0  0  0  0  0  0  0  0  0  0  0
   13.9767  -10.1147  -11.9823 O   0  0  0  0  0  0  0  0  0  0  0  0
   15.1147   -8.4905  -10.8929 O   0  0  0  0  0  0  0  0  0  0  0  0
   12.3056  -10.5897   -9.9966 F   0  0  0  0  0  0  0  0  0  0  0  0
  1  2  1  0
  2  3  2  0
  2  4  1  0
  1  5  1  0
M  END
$$$$
