
     RDKit          3D

  5  4  0  0  0  0  0  0  0  0999 V2000
   11.0263    6.9471    0.4416 C   0  0  0  0  0  0  0  0  0  0  0  0
   12.4315    6.7619   -0.0006 C   0  0  0  0  0  0  0  0  0  0  0  0
   13.2060    5.9497    0.5414 O   0  0  0  0  0  0  0  0  0  0  0  0
   12.9047    7.5210   -1.0587 O   0  0  0  0  0  0  0  0  0  0  0  0
   10.7927    6.2173    1.5751 F   0  0  0  0  0  0  0  0  0  0  0  0
  1  2  1  0
  2  3  2  0
  2  4  1  0
  1  5  1  0
M  END
$$$$
