
     RDKit          3D

  5  4  0  0  0  0  0  0  0  0999 V2000
    9.1065    4.6453    7.4104 C   0  0  0  0  0  0  0  0  0  0  0  0
    9.7253    4.1911    8.6813 C   0  0  0  0  0  0  0  0  0  0  0  0
   10.9215    4.4019    8.9603 O   0  0  0  0  0  0  0  0  0  0  0  0
    8.9443    3.5047    9.5971 O   0  0  0  0  0  0  0  0  0  0  0  0
   10.0742    5.0925    6.5527 F   0  0  0  0  0  0  0  0  0  0  0  0
  1  2  1  0
  2  3  2  0
  2  4  1  0
  1  5  1  0
M  END
$$$$
