
     RDKit          3D

 29 28  0  0  0  0  0  0  0  0999 V2000
    5.1944   -1.8169   -8.2553 C   0  0  0  0  0  0  0  0  0  0  0  0
    4.8114   -2.3379   -9.6277 C   0  0  0  0  0  0  0  0  0  0  0  0
    5.8462   -2.9490  -10.4583 C   0  0  0  0  0  0  0  0  0  0  0  0
    5.2631   -3.6107  -11.6858 C   0  0  0  0  0  0  0  0  0  0  0  0
    6.2011   -4.2518  -12.6356 C   0  0  0  0  0  0  0  0  0  0  0  0
    6.8263   -3.3678  -13.4825 F   0  0  0  0  0  0  0  0  0  0  0  0
    7.0245   -5.1430  -12.0128 F   0  0  0  0  0  0  0  0  0  0  0  0
    5.1569   -5.2815  -13.7082 S   0  0  0  0  0  0  0  0  0  0  0  0
    4.3975   -6.2410  -12.8633 O   0  0  0  0  0  0  0  0  0  0  0  0
    4.1935   -4.3659  -14.3979 O   0  0  0  0  0  0  0  0  0  0  0  0
    6.1254   -6.1136  -14.7737 O   0  0  0  0  0  0  0  0  0  0  0  0
    4.5099   -2.6738  -12.4143 F   0  0  0  0  0  0  0  0  0  0  0  0
    4.3194   -4.5673  -11.3091 F   0  0  0  0  0  0  0  0  0  0  0  0
    6.6061   -3.9097   -9.7936 F   0  0  0  0  0  0  0  0  0  0  0  0
    6.8005   -2.0679  -10.9771 F   0  0  0  0  0  0  0  0  0  0  0  0
    4.0829   -1.4364  -10.3464 F   0  0  0  0  0  0  0  0  0  0  0  0
    3.9140   -3.3942   -9.2862 F   0  0  0  0  0  0  0  0  0  0  0  0
    4.1250   -1.4375   -7.3282 C   0  0  0  0  0  0  0  0  0  0  0  0
    4.5989   -0.7131   -6.0960 C   0  0  0  0  0  0  0  0  0  0  0  0
    3.6237    0.2591   -5.5749 C   0  0  0  0  0  0  0  0  0  0  0  0
    4.0817    0.9272   -4.4599 F   0  0  0  0  0  0  0  0  0  0  0  0
    2.4994   -0.5085   -5.1134 F   0  0  0  0  0  0  0  0  0  0  0  0
    3.0473    1.1325   -6.4362 F   0  0  0  0  0  0  0  0  0  0  0  0
    5.7754   -0.0151   -6.3812 F   0  0  0  0  0  0  0  0  0  0  0  0
    4.9755   -1.6148   -5.1022 F   0  0  0  0  0  0  0  0  0  0  0  0
    3.4147   -2.5575   -6.8497 F   0  0  0  0  0  0  0  0  0  0  0  0
    3.1165   -0.6357   -7.8836 F   0  0  0  0  0  0  0  0  0  0  0  0
    5.8031   -2.9782   -7.6883 F   0  0  0  0  0  0  0  0  0  0  0  0
    6.1905   -0.8918   -8.4065 F   0  0  0  0  0  0  0  0  0  0  0  0
  1  2  1  0
  2  3  1  0
  3  4  1  0
  4  5  1  0
  5  6  1  0
  5  7  1  0
  5  8  1  0
  8  9  2  0
  8 10  2  0
  8 11  1  0
  4 12  1  0
  4 13  1  0
  3 14  1  0
  3 15  1  0
  2 16  1  0
  2 17  1  0
  1 18  1  0
 18 19  1  0
 19 20  1  0
 20 21  1  0
 20 22  1  0
 20 23  1  0
 19 24  1  0
 19 25  1  0
 18 26  1  0
 18 27  1  0
  1 28  1  0
  1 29  1  0
M  END
$$$$
