
     RDKit          3D

 29 28  0  0  0  0  0  0  0  0999 V2000
    5.0997   -2.5223   -7.9080 C   0  0  0  0  0  0  0  0  0  0  0  0
    5.6569   -2.6256   -9.3153 C   0  0  0  0  0  0  0  0  0  0  0  0
    5.3910   -3.8376  -10.0863 C   0  0  0  0  0  0  0  0  0  0  0  0
    5.9310   -3.7373  -11.4945 C   0  0  0  0  0  0  0  0  0  0  0  0
    5.5126   -4.7706  -12.4693 C   0  0  0  0  0  0  0  0  0  0  0  0
    5.9836   -6.0297  -12.1824 F   0  0  0  0  0  0  0  0  0  0  0  0
    4.1793   -4.6969  -12.7465 F   0  0  0  0  0  0  0  0  0  0  0  0
    6.3202   -4.3036  -14.0283 S   0  0  0  0  0  0  0  0  0  0  0  0
    5.8120   -5.1816  -15.1155 O   0  0  0  0  0  0  0  0  0  0  0  0
    5.9327   -2.8870  -14.3199 O   0  0  0  0  0  0  0  0  0  0  0  0
    7.9641   -4.4988  -13.8691 O   0  0  0  0  0  0  0  0  0  0  0  0
    7.3363   -3.7412  -11.4625 F   0  0  0  0  0  0  0  0  0  0  0  0
    5.6196   -2.4899  -12.0370 F   0  0  0  0  0  0  0  0  0  0  0  0
    4.0377   -4.1554  -10.1853 F   0  0  0  0  0  0  0  0  0  0  0  0
    5.9739   -5.0077   -9.5891 F   0  0  0  0  0  0  0  0  0  0  0  0
    6.9765   -2.2880   -9.3830 F   0  0  0  0  0  0  0  0  0  0  0  0
    4.9436   -1.5808   -9.9766 F   0  0  0  0  0  0  0  0  0  0  0  0
    5.0459   -1.2031   -7.2726 C   0  0  0  0  0  0  0  0  0  0  0  0
    4.3472   -1.1838   -5.9388 C   0  0  0  0  0  0  0  0  0  0  0  0
    3.9997    0.1704   -5.4773 C   0  0  0  0  0  0  0  0  0  0  0  0
    3.6191    1.0027   -6.5078 F   0  0  0  0  0  0  0  0  0  0  0  0
    5.2144    0.7436   -4.9650 F   0  0  0  0  0  0  0  0  0  0  0  0
    3.1487    0.3063   -4.4312 F   0  0  0  0  0  0  0  0  0  0  0  0
    5.1689   -1.7602   -4.9665 F   0  0  0  0  0  0  0  0  0  0  0  0
    3.2200   -2.0036   -5.9552 F   0  0  0  0  0  0  0  0  0  0  0  0
    4.3594   -0.2597   -8.0644 F   0  0  0  0  0  0  0  0  0  0  0  0
    6.2929   -0.5949   -7.0640 F   0  0  0  0  0  0  0  0  0  0  0  0
    3.7399   -2.8997   -8.1300 F   0  0  0  0  0  0  0  0  0  0  0  0
    5.6579   -3.5131   -7.1482 F   0  0  0  0  0  0  0  0  0  0  0  0
  1  2  1  0
  2  3  1  0
  3  4  1  0
  4  5  1  0
  5  6  1  0
  5  7  1  0
  5  8  1  0
  8  9  2  0
  8 10  2  0
  8 11  1  0
  4 12  1  0
  4 13  1  0
  3 14  1  0
  3 15  1  0
  2 16  1  0
  2 17  1  0
  1 18  1  0
 18 19  1  0
 19 20  1  0
 20 21  1  0
 20 22  1  0
 20 23  1  0
 19 24  1  0
 19 25  1  0
 18 26  1  0
 18 27  1  0
  1 28  1  0
  1 29  1  0
M  END
$$$$
