
     RDKit          3D

 29 28  0  0  0  0  0  0  0  0999 V2000
    4.9814   -1.0179   -7.5194 C   0  0  0  0  0  0  0  0  0  0  0  0
    4.8585   -2.1884   -8.4767 C   0  0  0  0  0  0  0  0  0  0  0  0
    5.3901   -2.0449   -9.8298 C   0  0  0  0  0  0  0  0  0  0  0  0
    5.2464   -3.3205  -10.6280 C   0  0  0  0  0  0  0  0  0  0  0  0
    5.5102   -3.2570  -12.0837 C   0  0  0  0  0  0  0  0  0  0  0  0
    4.6441   -2.4404  -12.7712 F   0  0  0  0  0  0  0  0  0  0  0  0
    6.8328   -3.0604  -12.3522 F   0  0  0  0  0  0  0  0  0  0  0  0
    5.1733   -4.9333  -12.6982 S   0  0  0  0  0  0  0  0  0  0  0  0
    3.7611   -5.2837  -12.3915 O   0  0  0  0  0  0  0  0  0  0  0  0
    5.3606   -4.9055  -14.1836 O   0  0  0  0  0  0  0  0  0  0  0  0
    6.1961   -6.0053  -11.9429 O   0  0  0  0  0  0  0  0  0  0  0  0
    3.9496   -3.8370  -10.4628 F   0  0  0  0  0  0  0  0  0  0  0  0
    6.0654   -4.3144  -10.0903 F   0  0  0  0  0  0  0  0  0  0  0  0
    6.7353   -1.6827   -9.8699 F   0  0  0  0  0  0  0  0  0  0  0  0
    4.7606   -1.0821  -10.6253 F   0  0  0  0  0  0  0  0  0  0  0  0
    3.6003   -2.7141   -8.5036 F   0  0  0  0  0  0  0  0  0  0  0  0
    5.6837   -3.1618   -7.8368 F   0  0  0  0  0  0  0  0  0  0  0  0
    4.3669   -1.1314   -6.1941 C   0  0  0  0  0  0  0  0  0  0  0  0
    3.8567    0.1694   -5.6323 C   0  0  0  0  0  0  0  0  0  0  0  0
    2.7506    0.7514   -6.4103 C   0  0  0  0  0  0  0  0  0  0  0  0
    2.2825   -0.0990   -7.3886 F   0  0  0  0  0  0  0  0  0  0  0  0
    3.3063    1.8691   -7.1234 F   0  0  0  0  0  0  0  0  0  0  0  0
    1.7113    1.3152   -5.7479 F   0  0  0  0  0  0  0  0  0  0  0  0
    4.8900    1.1097   -5.6044 F   0  0  0  0  0  0  0  0  0  0  0  0
    3.4962    0.0263   -4.2935 F   0  0  0  0  0  0  0  0  0  0  0  0
    5.2706   -1.6226   -5.2297 F   0  0  0  0  0  0  0  0  0  0  0  0
    3.2953   -2.0334   -6.1134 F   0  0  0  0  0  0  0  0  0  0  0  0
    6.3916   -1.0055   -7.2914 F   0  0  0  0  0  0  0  0  0  0  0  0
    4.6888    0.1310   -8.2014 F   0  0  0  0  0  0  0  0  0  0  0  0
  1  2  1  0
  2  3  1  0
  3  4  1  0
  4  5  1  0
  5  6  1  0
  5  7  1  0
  5  8  1  0
  8  9  2  0
  8 10  2  0
  8 11  1  0
  4 12  1  0
  4 13  1  0
  3 14  1  0
  3 15  1  0
  2 16  1  0
  2 17  1  0
  1 18  1  0
 18 19  1  0
 19 20  1  0
 20 21  1  0
 20 22  1  0
 20 23  1  0
 19 24  1  0
 19 25  1  0
 18 26  1  0
 18 27  1  0
  1 28  1  0
  1 29  1  0
M  END
$$$$
