
     RDKit          3D

 29 28  0  0  0  0  0  0  0  0999 V2000
    4.5054   -2.0103   -8.4283 C   0  0  0  0  0  0  0  0  0  0  0  0
    5.2212   -2.7639   -9.5335 C   0  0  0  0  0  0  0  0  0  0  0  0
    4.4640   -3.1498  -10.7218 C   0  0  0  0  0  0  0  0  0  0  0  0
    5.1812   -4.2107  -11.5247 C   0  0  0  0  0  0  0  0  0  0  0  0
    4.4896   -4.7625  -12.7123 C   0  0  0  0  0  0  0  0  0  0  0  0
    3.3064   -5.3989  -12.4216 F   0  0  0  0  0  0  0  0  0  0  0  0
    4.4291   -3.8575  -13.7308 F   0  0  0  0  0  0  0  0  0  0  0  0
    5.5907   -6.0659  -13.3367 S   0  0  0  0  0  0  0  0  0  0  0  0
    6.9152   -5.4675  -13.6509 O   0  0  0  0  0  0  0  0  0  0  0  0
    5.7541   -7.0703  -12.2383 O   0  0  0  0  0  0  0  0  0  0  0  0
    4.9292   -6.7234  -14.7136 O   0  0  0  0  0  0  0  0  0  0  0  0
    5.5047   -5.2953  -10.6912 F   0  0  0  0  0  0  0  0  0  0  0  0
    6.4255   -3.7348  -11.9402 F   0  0  0  0  0  0  0  0  0  0  0  0
    4.1953   -2.0899  -11.5859 F   0  0  0  0  0  0  0  0  0  0  0  0
    3.2060   -3.7103  -10.4785 F   0  0  0  0  0  0  0  0  0  0  0  0
    5.9533   -3.8140   -9.0633 F   0  0  0  0  0  0  0  0  0  0  0  0
    6.1635   -1.7865   -9.9743 F   0  0  0  0  0  0  0  0  0  0  0  0
    5.2983   -1.4837   -7.3143 C   0  0  0  0  0  0  0  0  0  0  0  0
    4.4918   -1.1159   -6.0969 C   0  0  0  0  0  0  0  0  0  0  0  0
    4.3152   -2.2300   -5.1508 C   0  0  0  0  0  0  0  0  0  0  0  0
    3.1675   -2.1116   -4.3970 F   0  0  0  0  0  0  0  0  0  0  0  0
    5.3936   -2.1284   -4.2057 F   0  0  0  0  0  0  0  0  0  0  0  0
    4.4440   -3.5003   -5.6054 F   0  0  0  0  0  0  0  0  0  0  0  0
    3.2189   -0.6891   -6.4845 F   0  0  0  0  0  0  0  0  0  0  0  0
    5.0376   -0.0055   -5.4550 F   0  0  0  0  0  0  0  0  0  0  0  0
    5.9947   -0.3094   -7.6664 F   0  0  0  0  0  0  0  0  0  0  0  0
    6.3181   -2.3333   -6.8596 F   0  0  0  0  0  0  0  0  0  0  0  0
    4.0374   -0.8661   -9.1440 F   0  0  0  0  0  0  0  0  0  0  0  0
    3.3950   -2.7231   -8.0680 F   0  0  0  0  0  0  0  0  0  0  0  0
  1  2  1  0
  2  3  1  0
  3  4  1  0
  4  5  1  0
  5  6  1  0
  5  7  1  0
  5  8  1  0
  8  9  2  0
  8 10  2  0
  8 11  1  0
  4 12  1  0
  4 13  1  0
  3 14  1  0
  3 15  1  0
  2 16  1  0
  2 17  1  0
  1 18  1  0
 18 19  1  0
 19 20  1  0
 20 21  1  0
 20 22  1  0
 20 23  1  0
 19 24  1  0
 19 25  1  0
 18 26  1  0
 18 27  1  0
  1 28  1  0
  1 29  1  0
M  END
$$$$
