
     RDKit          3D

  4  3  0  0  0  0  0  0  0  0999 V2000
   -0.5784    1.0685   10.0824 C   0  0  0  0  0  0  0  0  0  0  0  0
   -2.0784    0.9460   10.1106 C   0  0  0  0  0  0  0  0  0  0  0  0
   -2.7182    0.1151    8.6849 Cl  0  0  0  0  0  0  0  0  0  0  0  0
   -0.0799    2.1452   11.4336 Cl  0  0  0  0  0  0  0  0  0  0  0  0
  1  2  1  0
  2  3  1  0
  1  4  1  0
M  END
$$$$
