
     RDKit          3D

  4  3  0  0  0  0  0  0  0  0999 V2000
   -9.6862   -7.2286   -3.3431 C   0  0  0  0  0  0  0  0  0  0  0  0
   -8.6923   -7.7903   -4.3240 C   0  0  0  0  0  0  0  0  0  0  0  0
   -9.3458   -9.1510   -5.2481 Cl  0  0  0  0  0  0  0  0  0  0  0  0
   -9.0213   -5.6895   -2.6928 Cl  0  0  0  0  0  0  0  0  0  0  0  0
  1  2  1  0
  2  3  1  0
  1  4  1  0
M  END
$$$$
