
     RDKit          3D

  4  3  0  0  0  0  0  0  0  0999 V2000
   -0.9490    3.4971   -5.6246 C   0  0  0  0  0  0  0  0  0  0  0  0
   -0.3523    2.2756   -6.2708 C   0  0  0  0  0  0  0  0  0  0  0  0
   -1.1111    1.8898   -7.8225 Cl  0  0  0  0  0  0  0  0  0  0  0  0
   -0.0529    3.8164   -4.0985 Cl  0  0  0  0  0  0  0  0  0  0  0  0
  1  2  1  0
  2  3  1  0
  1  4  1  0
M  END
$$$$
