
     RDKit          3D

 25 24  0  0  0  0  0  0  0  0999 V2000
    9.1869  -13.6289    2.0862 C   0  0  0  0  0  0  0  0  0  0  0  0
    9.3368  -13.6256    0.8378 O   0  0  0  0  0  0  0  0  0  0  0  0
    8.6610  -12.4431    2.8369 C   0  0  0  0  0  0  0  0  0  0  0  0
    8.5180  -11.3412    1.8138 C   0  0  0  0  0  0  0  0  0  0  0  0
    8.1246  -10.0225    2.4298 C   0  0  0  0  0  0  0  0  0  0  0  0
    8.2976   -8.9110    1.4262 C   0  0  0  0  0  0  0  0  0  0  0  0
    8.2686   -7.5388    2.0662 C   0  0  0  0  0  0  0  0  0  0  0  0
    9.2168   -6.6810    1.2628 C   0  0  0  0  0  0  0  0  0  0  0  0
    9.5512   -5.3740    1.9452 C   0  0  0  0  0  0  0  0  0  0  0  0
   10.8869   -5.1603    2.0694 F   0  0  0  0  0  0  0  0  0  0  0  0
    8.9216   -4.3445    1.2758 F   0  0  0  0  0  0  0  0  0  0  0  0
    8.9674   -5.4246    3.1981 F   0  0  0  0  0  0  0  0  0  0  0  0
    8.6105   -6.3823    0.0634 F   0  0  0  0  0  0  0  0  0  0  0  0
   10.3877   -7.3830    1.0607 F   0  0  0  0  0  0  0  0  0  0  0  0
    7.0112   -7.0133    2.1244 F   0  0  0  0  0  0  0  0  0  0  0  0
    8.7906   -7.6838    3.3516 F   0  0  0  0  0  0  0  0  0  0  0  0
    7.3257   -8.9137    0.4532 F   0  0  0  0  0  0  0  0  0  0  0  0
    9.5238   -8.9929    0.7769 F   0  0  0  0  0  0  0  0  0  0  0  0
    6.8486  -10.0034    2.9059 F   0  0  0  0  0  0  0  0  0  0  0  0
    9.0049   -9.7502    3.4598 F   0  0  0  0  0  0  0  0  0  0  0  0
    7.6124  -11.7511    0.8552 F   0  0  0  0  0  0  0  0  0  0  0  0
    9.7432  -11.1758    1.1929 F   0  0  0  0  0  0  0  0  0  0  0  0
    7.4167  -12.8092    3.3318 F   0  0  0  0  0  0  0  0  0  0  0  0
    9.5108  -12.0836    3.8492 F   0  0  0  0  0  0  0  0  0  0  0  0
    9.5151  -14.7639    2.8156 O   0  0  0  0  0  0  0  0  0  0  0  0
  1  2  2  0
  1  3  1  0
  3  4  1  0
  4  5  1  0
  5  6  1  0
  6  7  1  0
  7  8  1  0
  8  9  1  0
  9 10  1  0
  9 11  1  0
  9 12  1  0
  8 13  1  0
  8 14  1  0
  7 15  1  0
  7 16  1  0
  6 17  1  0
  6 18  1  0
  5 19  1  0
  5 20  1  0
  4 21  1  0
  4 22  1  0
  3 23  1  0
  3 24  1  0
  1 25  1  0
M  END
$$$$
