
     RDKit          3D

 25 24  0  0  0  0  0  0  0  0999 V2000
   19.8087    6.9472   12.1506 C   0  0  0  0  0  0  0  0  0  0  0  0
   20.1572    7.4778   11.0652 O   0  0  0  0  0  0  0  0  0  0  0  0
   18.4410    6.3722   12.3629 C   0  0  0  0  0  0  0  0  0  0  0  0
   17.8894    6.1069   10.9820 C   0  0  0  0  0  0  0  0  0  0  0  0
   16.4689    5.6027   11.0097 C   0  0  0  0  0  0  0  0  0  0  0  0
   16.0223    5.2384    9.6167 C   0  0  0  0  0  0  0  0  0  0  0  0
   14.5251    5.0322    9.5203 C   0  0  0  0  0  0  0  0  0  0  0  0
   14.1813    5.1327    8.0533 C   0  0  0  0  0  0  0  0  0  0  0  0
   12.6914    5.1426    7.7965 C   0  0  0  0  0  0  0  0  0  0  0  0
   12.3643    4.7963    6.5245 F   0  0  0  0  0  0  0  0  0  0  0  0
   12.0701    4.3371    8.7290 F   0  0  0  0  0  0  0  0  0  0  0  0
   12.2566    6.4295    8.0573 F   0  0  0  0  0  0  0  0  0  0  0  0
   14.7075    4.0323    7.4149 F   0  0  0  0  0  0  0  0  0  0  0  0
   14.7214    6.2985    7.5496 F   0  0  0  0  0  0  0  0  0  0  0  0
   14.1214    3.8514   10.0713 F   0  0  0  0  0  0  0  0  0  0  0  0
   13.9283    6.1034   10.1849 F   0  0  0  0  0  0  0  0  0  0  0  0
   16.6106    4.0857    9.1514 F   0  0  0  0  0  0  0  0  0  0  0  0
   16.3189    6.2438    8.7039 F   0  0  0  0  0  0  0  0  0  0  0  0
   16.2868    4.5336   11.8338 F   0  0  0  0  0  0  0  0  0  0  0  0
   15.6524    6.6414   11.4152 F   0  0  0  0  0  0  0  0  0  0  0  0
   18.7349    5.2260   10.3366 F   0  0  0  0  0  0  0  0  0  0  0  0
   17.9076    7.2991   10.2805 F   0  0  0  0  0  0  0  0  0  0  0  0
   18.6165    5.1798   13.0518 F   0  0  0  0  0  0  0  0  0  0  0  0
   17.6454    7.2381   13.0653 F   0  0  0  0  0  0  0  0  0  0  0  0
   20.7099    6.8813   13.2048 O   0  0  0  0  0  0  0  0  0  0  0  0
  1  2  2  0
  1  3  1  0
  3  4  1  0
  4  5  1  0
  5  6  1  0
  6  7  1  0
  7  8  1  0
  8  9  1  0
  9 10  1  0
  9 11  1  0
  9 12  1  0
  8 13  1  0
  8 14  1  0
  7 15  1  0
  7 16  1  0
  6 17  1  0
  6 18  1  0
  5 19  1  0
  5 20  1  0
  4 21  1  0
  4 22  1  0
  3 23  1  0
  3 24  1  0
  1 25  1  0
M  END
$$$$
