
     RDKit          3D

 25 24  0  0  0  0  0  0  0  0999 V2000
    9.9524   -3.4823   17.7367 C   0  0  0  0  0  0  0  0  0  0  0  0
    9.1848   -2.4873   17.6917 O   0  0  0  0  0  0  0  0  0  0  0  0
    9.8964   -4.5884   16.7269 C   0  0  0  0  0  0  0  0  0  0  0  0
    8.6908   -4.2957   15.8653 C   0  0  0  0  0  0  0  0  0  0  0  0
    7.3893   -4.6003   16.5626 C   0  0  0  0  0  0  0  0  0  0  0  0
    6.2381   -4.0077   15.7906 C   0  0  0  0  0  0  0  0  0  0  0  0
    4.9320   -4.0682   16.5547 C   0  0  0  0  0  0  0  0  0  0  0  0
    3.8992   -3.4074   15.6732 C   0  0  0  0  0  0  0  0  0  0  0  0
    2.6260   -3.0640   16.4126 C   0  0  0  0  0  0  0  0  0  0  0  0
    2.7910   -2.0828   17.3373 F   0  0  0  0  0  0  0  0  0  0  0  0
    1.6444   -2.7512   15.4945 F   0  0  0  0  0  0  0  0  0  0  0  0
    2.2073   -4.2265   17.0342 F   0  0  0  0  0  0  0  0  0  0  0  0
    3.5723   -4.2867   14.6655 F   0  0  0  0  0  0  0  0  0  0  0  0
    4.4344   -2.2448   15.1571 F   0  0  0  0  0  0  0  0  0  0  0  0
    4.5851   -5.3412   16.9011 F   0  0  0  0  0  0  0  0  0  0  0  0
    5.0983   -3.2859   17.6974 F   0  0  0  0  0  0  0  0  0  0  0  0
    6.0213   -4.6373   14.5874 F   0  0  0  0  0  0  0  0  0  0  0  0
    6.4453   -2.6615   15.5140 F   0  0  0  0  0  0  0  0  0  0  0  0
    7.1690   -5.9318   16.7463 F   0  0  0  0  0  0  0  0  0  0  0  0
    7.3991   -3.9615   17.7881 F   0  0  0  0  0  0  0  0  0  0  0  0
    8.8179   -4.9996   14.6839 F   0  0  0  0  0  0  0  0  0  0  0  0
    8.7063   -2.9473   15.5562 F   0  0  0  0  0  0  0  0  0  0  0  0
   11.0613   -4.4978   15.9771 F   0  0  0  0  0  0  0  0  0  0  0  0
    9.7941   -5.8098   17.3383 F   0  0  0  0  0  0  0  0  0  0  0  0
   10.8945   -3.5791   18.7521 O   0  0  0  0  0  0  0  0  0  0  0  0
  1  2  2  0
  1  3  1  0
  3  4  1  0
  4  5  1  0
  5  6  1  0
  6  7  1  0
  7  8  1  0
  8  9  1  0
  9 10  1  0
  9 11  1  0
  9 12  1  0
  8 13  1  0
  8 14  1  0
  7 15  1  0
  7 16  1  0
  6 17  1  0
  6 18  1  0
  5 19  1  0
  5 20  1  0
  4 21  1  0
  4 22  1  0
  3 23  1  0
  3 24  1  0
  1 25  1  0
M  END
$$$$
