
     RDKit          3D

 25 24  0  0  0  0  0  0  0  0999 V2000
    2.7369   -4.1926   19.5709 C   0  0  0  0  0  0  0  0  0  0  0  0
    3.3757   -3.1279   19.3725 O   0  0  0  0  0  0  0  0  0  0  0  0
    1.6607   -4.6703   18.6437 C   0  0  0  0  0  0  0  0  0  0  0  0
    1.7739   -3.8102   17.4072 C   0  0  0  0  0  0  0  0  0  0  0  0
    2.9878   -4.1417   16.5768 C   0  0  0  0  0  0  0  0  0  0  0  0
    3.2158   -3.0684   15.5431 C   0  0  0  0  0  0  0  0  0  0  0  0
    4.5204   -3.2480   14.7952 C   0  0  0  0  0  0  0  0  0  0  0  0
    4.5498   -2.1700   13.7381 C   0  0  0  0  0  0  0  0  0  0  0  0
    5.8906   -2.0570   13.0487 C   0  0  0  0  0  0  0  0  0  0  0  0
    5.8813   -1.1996   11.9952 F   0  0  0  0  0  0  0  0  0  0  0  0
    6.8485   -1.7198   13.9830 F   0  0  0  0  0  0  0  0  0  0  0  0
    6.2167   -3.3288   12.6135 F   0  0  0  0  0  0  0  0  0  0  0  0
    4.2926   -0.9641   14.3505 F   0  0  0  0  0  0  0  0  0  0  0  0
    3.5900   -2.4537   12.7879 F   0  0  0  0  0  0  0  0  0  0  0  0
    5.6076   -3.2021   15.6178 F   0  0  0  0  0  0  0  0  0  0  0  0
    4.4505   -4.4862   14.1569 F   0  0  0  0  0  0  0  0  0  0  0  0
    3.2408   -1.8037   16.0827 F   0  0  0  0  0  0  0  0  0  0  0  0
    2.2245   -3.0759   14.5690 F   0  0  0  0  0  0  0  0  0  0  0  0
    4.1223   -4.3053   17.3125 F   0  0  0  0  0  0  0  0  0  0  0  0
    2.7233   -5.3018   15.8737 F   0  0  0  0  0  0  0  0  0  0  0  0
    1.7631   -2.4850   17.7954 F   0  0  0  0  0  0  0  0  0  0  0  0
    0.6502   -4.0312   16.6311 F   0  0  0  0  0  0  0  0  0  0  0  0
    1.9571   -5.9928   18.3427 F   0  0  0  0  0  0  0  0  0  0  0  0
    0.4247   -4.5590   19.2235 F   0  0  0  0  0  0  0  0  0  0  0  0
    3.0239   -4.9697   20.6852 O   0  0  0  0  0  0  0  0  0  0  0  0
  1  2  2  0
  1  3  1  0
  3  4  1  0
  4  5  1  0
  5  6  1  0
  6  7  1  0
  7  8  1  0
  8  9  1  0
  9 10  1  0
  9 11  1  0
  9 12  1  0
  8 13  1  0
  8 14  1  0
  7 15  1  0
  7 16  1  0
  6 17  1  0
  6 18  1  0
  5 19  1  0
  5 20  1  0
  4 21  1  0
  4 22  1  0
  3 23  1  0
  3 24  1  0
  1 25  1  0
M  END
$$$$
