
     RDKit          3D

 25 24  0  0  0  0  0  0  0  0999 V2000
   48.3729  -31.4642   68.6925 C   0  0  0  0  0  0  0  0  0  0  0  0
   47.3391  -31.4037   67.9792 O   0  0  0  0  0  0  0  0  0  0  0  0
   48.3442  -31.9424   70.1126 C   0  0  0  0  0  0  0  0  0  0  0  0
   49.4168  -33.0015   70.2098 C   0  0  0  0  0  0  0  0  0  0  0  0
   49.6757  -33.4390   71.6292 C   0  0  0  0  0  0  0  0  0  0  0  0
   48.5888  -32.9210   72.5362 C   0  0  0  0  0  0  0  0  0  0  0  0
   48.8534  -33.2267   73.9957 C   0  0  0  0  0  0  0  0  0  0  0  0
   47.5339  -33.6766   74.5760 C   0  0  0  0  0  0  0  0  0  0  0  0
   47.6910  -34.4605   75.8592 C   0  0  0  0  0  0  0  0  0  0  0  0
   48.3233  -33.7640   76.8390 F   0  0  0  0  0  0  0  0  0  0  0  0
   46.4516  -34.9137   76.2627 F   0  0  0  0  0  0  0  0  0  0  0  0
   48.4230  -35.5903   75.5419 F   0  0  0  0  0  0  0  0  0  0  0  0
   46.9212  -34.4987   73.6572 F   0  0  0  0  0  0  0  0  0  0  0  0
   46.7595  -32.5636   74.8334 F   0  0  0  0  0  0  0  0  0  0  0  0
   49.8415  -34.1513   74.1675 F   0  0  0  0  0  0  0  0  0  0  0  0
   49.2102  -32.0215   74.6004 F   0  0  0  0  0  0  0  0  0  0  0  0
   47.3519  -33.4445   72.2409 F   0  0  0  0  0  0  0  0  0  0  0  0
   48.4740  -31.5379   72.4607 F   0  0  0  0  0  0  0  0  0  0  0  0
   49.7750  -34.7897   71.7728 F   0  0  0  0  0  0  0  0  0  0  0  0
   50.8476  -32.8430   72.0550 F   0  0  0  0  0  0  0  0  0  0  0  0
   50.5606  -32.5207   69.6034 F   0  0  0  0  0  0  0  0  0  0  0  0
   48.9912  -34.1049   69.4919 F   0  0  0  0  0  0  0  0  0  0  0  0
   48.6695  -30.8493   70.9041 F   0  0  0  0  0  0  0  0  0  0  0  0
   47.1116  -32.4421   70.4399 F   0  0  0  0  0  0  0  0  0  0  0  0
   49.5973  -31.0780   68.1636 O   0  0  0  0  0  0  0  0  0  0  0  0
  1  2  2  0
  1  3  1  0
  3  4  1  0
  4  5  1  0
  5  6  1  0
  6  7  1  0
  7  8  1  0
  8  9  1  0
  9 10  1  0
  9 11  1  0
  9 12  1  0
  8 13  1  0
  8 14  1  0
  7 15  1  0
  7 16  1  0
  6 17  1  0
  6 18  1  0
  5 19  1  0
  5 20  1  0
  4 21  1  0
  4 22  1  0
  3 23  1  0
  3 24  1  0
  1 25  1  0
M  END
$$$$
