
     RDKit          3D

 25 24  0  0  0  0  0  0  0  0999 V2000
   -8.7409    0.8744    1.0961 C   0  0  0  0  0  0  0  0  0  0  0  0
   -8.7308   -0.2532    0.5477 O   0  0  0  0  0  0  0  0  0  0  0  0
   -7.7556    1.3291    2.0958 C   0  0  0  0  0  0  0  0  0  0  0  0
   -6.9301    0.1006    2.5661 C   0  0  0  0  0  0  0  0  0  0  0  0
   -5.8480   -0.1277    1.5769 C   0  0  0  0  0  0  0  0  0  0  0  0
   -5.1187   -1.4189    1.6065 C   0  0  0  0  0  0  0  0  0  0  0  0
   -4.2669   -1.7896    0.4720 C   0  0  0  0  0  0  0  0  0  0  0  0
   -3.2747   -2.8932    0.6478 C   0  0  0  0  0  0  0  0  0  0  0  0
   -2.6789   -3.5079   -0.5553 C   0  0  0  0  0  0  0  0  0  0  0  0
   -3.5846   -3.9370   -1.4851 F   0  0  0  0  0  0  0  0  0  0  0  0
   -1.9520   -2.4668   -1.2144 F   0  0  0  0  0  0  0  0  0  0  0  0
   -1.7211   -4.4680   -0.3586 F   0  0  0  0  0  0  0  0  0  0  0  0
   -2.2172   -2.3149    1.3797 F   0  0  0  0  0  0  0  0  0  0  0  0
   -3.8479   -3.8365    1.4909 F   0  0  0  0  0  0  0  0  0  0  0  0
   -3.5108   -0.7022    0.0025 F   0  0  0  0  0  0  0  0  0  0  0  0
   -5.0301   -2.1549   -0.6614 F   0  0  0  0  0  0  0  0  0  0  0  0
   -4.3249   -1.4071    2.7514 F   0  0  0  0  0  0  0  0  0  0  0  0
   -6.0133   -2.4832    1.8216 F   0  0  0  0  0  0  0  0  0  0  0  0
   -4.9203    0.9179    1.7377 F   0  0  0  0  0  0  0  0  0  0  0  0
   -6.4043    0.1297    0.3183 F   0  0  0  0  0  0  0  0  0  0  0  0
   -7.8868   -0.9317    2.5186 F   0  0  0  0  0  0  0  0  0  0  0  0
   -6.5405    0.3687    3.8407 F   0  0  0  0  0  0  0  0  0  0  0  0
   -6.8255    2.1203    1.4298 F   0  0  0  0  0  0  0  0  0  0  0  0
   -8.3256    1.9472    3.1728 F   0  0  0  0  0  0  0  0  0  0  0  0
   -9.7494    1.7625    0.7406 O   0  0  0  0  0  0  0  0  0  0  0  0
  1  2  2  0
  1  3  1  0
  3  4  1  0
  4  5  1  0
  5  6  1  0
  6  7  1  0
  7  8  1  0
  8  9  1  0
  9 10  1  0
  9 11  1  0
  9 12  1  0
  8 13  1  0
  8 14  1  0
  7 15  1  0
  7 16  1  0
  6 17  1  0
  6 18  1  0
  5 19  1  0
  5 20  1  0
  4 21  1  0
  4 22  1  0
  3 23  1  0
  3 24  1  0
  1 25  1  0
M  END
$$$$
