
     RDKit          3D

 25 24  0  0  0  0  0  0  0  0999 V2000
   -8.1617    1.2430    2.6603 C   0  0  0  0  0  0  0  0  0  0  0  0
   -8.1722    2.3273    3.2899 O   0  0  0  0  0  0  0  0  0  0  0  0
   -7.1679    0.1699    2.8557 C   0  0  0  0  0  0  0  0  0  0  0  0
   -6.1049    0.2734    1.7283 C   0  0  0  0  0  0  0  0  0  0  0  0
   -5.3349   -0.9948    1.7095 C   0  0  0  0  0  0  0  0  0  0  0  0
   -4.3444   -1.2090    0.6265 C   0  0  0  0  0  0  0  0  0  0  0  0
   -3.8866   -2.5700    0.3297 C   0  0  0  0  0  0  0  0  0  0  0  0
   -2.6894   -2.7515   -0.5460 C   0  0  0  0  0  0  0  0  0  0  0  0
   -1.9676   -4.0388   -0.5008 C   0  0  0  0  0  0  0  0  0  0  0  0
   -2.6824   -5.1104   -0.9588 F   0  0  0  0  0  0  0  0  0  0  0  0
   -0.8770   -3.9149   -1.4182 F   0  0  0  0  0  0  0  0  0  0  0  0
   -1.3400   -4.3636    0.6733 F   0  0  0  0  0  0  0  0  0  0  0  0
   -3.1772   -2.6005   -1.8605 F   0  0  0  0  0  0  0  0  0  0  0  0
   -1.8472   -1.6687   -0.3275 F   0  0  0  0  0  0  0  0  0  0  0  0
   -4.8912   -3.3443   -0.2753 F   0  0  0  0  0  0  0  0  0  0  0  0
   -3.5967   -3.2962    1.5084 F   0  0  0  0  0  0  0  0  0  0  0  0
   -4.8994   -0.6811   -0.5373 F   0  0  0  0  0  0  0  0  0  0  0  0
   -3.1988   -0.4224    0.8463 F   0  0  0  0  0  0  0  0  0  0  0  0
   -6.2737   -2.0422    1.6755 F   0  0  0  0  0  0  0  0  0  0  0  0
   -4.7580   -1.1241    2.9785 F   0  0  0  0  0  0  0  0  0  0  0  0
   -5.3071    1.3447    2.1744 F   0  0  0  0  0  0  0  0  0  0  0  0
   -6.7830    0.5884    0.5930 F   0  0  0  0  0  0  0  0  0  0  0  0
   -6.4569    0.4702    4.0128 F   0  0  0  0  0  0  0  0  0  0  0  0
   -7.7186   -1.0806    2.8632 F   0  0  0  0  0  0  0  0  0  0  0  0
   -9.1539    1.0319    1.7100 O   0  0  0  0  0  0  0  0  0  0  0  0
  1  2  2  0
  1  3  1  0
  3  4  1  0
  4  5  1  0
  5  6  1  0
  6  7  1  0
  7  8  1  0
  8  9  1  0
  9 10  1  0
  9 11  1  0
  9 12  1  0
  8 13  1  0
  8 14  1  0
  7 15  1  0
  7 16  1  0
  6 17  1  0
  6 18  1  0
  5 19  1  0
  5 20  1  0
  4 21  1  0
  4 22  1  0
  3 23  1  0
  3 24  1  0
  1 25  1  0
M  END
$$$$
