
     RDKit          3D

 25 24  0  0  0  0  0  0  0  0999 V2000
  -11.4379    2.7658   -2.2849 C   0  0  0  0  0  0  0  0  0  0  0  0
  -12.6384    2.8284   -1.9283 O   0  0  0  0  0  0  0  0  0  0  0  0
  -10.4998    1.6988   -1.8866 C   0  0  0  0  0  0  0  0  0  0  0  0
   -9.8788    2.0775   -0.5144 C   0  0  0  0  0  0  0  0  0  0  0  0
   -8.8452    1.0647   -0.1864 C   0  0  0  0  0  0  0  0  0  0  0  0
   -8.3034    1.0233    1.1936 C   0  0  0  0  0  0  0  0  0  0  0  0
   -7.1455    0.1726    1.4863 C   0  0  0  0  0  0  0  0  0  0  0  0
   -6.6648    0.0722    2.8976 C   0  0  0  0  0  0  0  0  0  0  0  0
   -6.1822   -1.2335    3.3901 C   0  0  0  0  0  0  0  0  0  0  0  0
   -7.1558   -2.1808    3.5440 F   0  0  0  0  0  0  0  0  0  0  0  0
   -5.3316   -1.7547    2.3648 F   0  0  0  0  0  0  0  0  0  0  0  0
   -5.3621   -1.2241    4.4879 F   0  0  0  0  0  0  0  0  0  0  0  0
   -5.5773    0.9667    2.9732 F   0  0  0  0  0  0  0  0  0  0  0  0
   -7.6539    0.6082    3.7122 F   0  0  0  0  0  0  0  0  0  0  0  0
   -6.0111    0.5540    0.7498 F   0  0  0  0  0  0  0  0  0  0  0  0
   -7.3558   -1.1630    1.0708 F   0  0  0  0  0  0  0  0  0  0  0  0
   -7.9695    2.3321    1.5349 F   0  0  0  0  0  0  0  0  0  0  0  0
   -9.3155    0.6791    2.1082 F   0  0  0  0  0  0  0  0  0  0  0  0
   -7.7795    1.2634   -1.0834 F   0  0  0  0  0  0  0  0  0  0  0  0
   -9.3675   -0.1730   -0.5803 F   0  0  0  0  0  0  0  0  0  0  0  0
  -10.9862    1.9699    0.3488 F   0  0  0  0  0  0  0  0  0  0  0  0
   -9.4531    3.3633   -0.6308 F   0  0  0  0  0  0  0  0  0  0  0  0
  -11.2564    0.5653   -1.6086 F   0  0  0  0  0  0  0  0  0  0  0  0
   -9.5091    1.4819   -2.8023 F   0  0  0  0  0  0  0  0  0  0  0  0
  -10.9514    3.7699   -3.1139 O   0  0  0  0  0  0  0  0  0  0  0  0
  1  2  2  0
  1  3  1  0
  3  4  1  0
  4  5  1  0
  5  6  1  0
  6  7  1  0
  7  8  1  0
  8  9  1  0
  9 10  1  0
  9 11  1  0
  9 12  1  0
  8 13  1  0
  8 14  1  0
  7 15  1  0
  7 16  1  0
  6 17  1  0
  6 18  1  0
  5 19  1  0
  5 20  1  0
  4 21  1  0
  4 22  1  0
  3 23  1  0
  3 24  1  0
  1 25  1  0
M  END
$$$$
