
     RDKit          3D

 25 24  0  0  0  0  0  0  0  0999 V2000
  -12.0447    2.4846   -1.3246 C   0  0  0  0  0  0  0  0  0  0  0  0
  -11.9624    1.9652   -2.4629 O   0  0  0  0  0  0  0  0  0  0  0  0
  -10.8937    2.7572   -0.4425 C   0  0  0  0  0  0  0  0  0  0  0  0
  -10.3115    1.4003    0.0391 C   0  0  0  0  0  0  0  0  0  0  0  0
   -9.0868    1.6835    0.8275 C   0  0  0  0  0  0  0  0  0  0  0  0
   -8.3647    0.5481    1.4512 C   0  0  0  0  0  0  0  0  0  0  0  0
   -7.4005    0.8114    2.5241 C   0  0  0  0  0  0  0  0  0  0  0  0
   -6.7469   -0.3474    3.2045 C   0  0  0  0  0  0  0  0  0  0  0  0
   -5.7082   -1.1025    2.4758 C   0  0  0  0  0  0  0  0  0  0  0  0
   -4.9530   -1.9330    3.2561 F   0  0  0  0  0  0  0  0  0  0  0  0
   -6.4054   -1.9795    1.5863 F   0  0  0  0  0  0  0  0  0  0  0  0
   -4.8977   -0.3936    1.6281 F   0  0  0  0  0  0  0  0  0  0  0  0
   -6.1284    0.2054    4.3449 F   0  0  0  0  0  0  0  0  0  0  0  0
   -7.7573   -1.1716    3.6833 F   0  0  0  0  0  0  0  0  0  0  0  0
   -7.9649    1.5651    3.5672 F   0  0  0  0  0  0  0  0  0  0  0  0
   -6.3352    1.6315    2.0842 F   0  0  0  0  0  0  0  0  0  0  0  0
   -9.3333   -0.3201    1.9504 F   0  0  0  0  0  0  0  0  0  0  0  0
   -7.6998   -0.2095    0.4697 F   0  0  0  0  0  0  0  0  0  0  0  0
   -9.4517    2.5943    1.8359 F   0  0  0  0  0  0  0  0  0  0  0  0
   -8.2517    2.4423   -0.0011 F   0  0  0  0  0  0  0  0  0  0  0  0
   -9.9958    0.7675   -1.1786 F   0  0  0  0  0  0  0  0  0  0  0  0
  -11.3196    0.7634    0.6918 F   0  0  0  0  0  0  0  0  0  0  0  0
   -9.8828    3.2912   -1.2347 F   0  0  0  0  0  0  0  0  0  0  0  0
  -11.2116    3.5360    0.6342 F   0  0  0  0  0  0  0  0  0  0  0  0
  -13.3069    2.8297   -0.8558 O   0  0  0  0  0  0  0  0  0  0  0  0
  1  2  2  0
  1  3  1  0
  3  4  1  0
  4  5  1  0
  5  6  1  0
  6  7  1  0
  7  8  1  0
  8  9  1  0
  9 10  1  0
  9 11  1  0
  9 12  1  0
  8 13  1  0
  8 14  1  0
  7 15  1  0
  7 16  1  0
  6 17  1  0
  6 18  1  0
  5 19  1  0
  5 20  1  0
  4 21  1  0
  4 22  1  0
  3 23  1  0
  3 24  1  0
  1 25  1  0
M  END
$$$$
