
     RDKit          3D

 25 24  0  0  0  0  0  0  0  0999 V2000
  -12.1568    6.1583   -0.9203 C   0  0  0  0  0  0  0  0  0  0  0  0
  -12.1917    6.2486    0.3299 O   0  0  0  0  0  0  0  0  0  0  0  0
  -12.5898    4.9748   -1.6876 C   0  0  0  0  0  0  0  0  0  0  0  0
  -11.3962    3.9855   -1.7801 C   0  0  0  0  0  0  0  0  0  0  0  0
  -11.8394    2.8083   -2.5672 C   0  0  0  0  0  0  0  0  0  0  0  0
  -10.8973    1.6767   -2.7451 C   0  0  0  0  0  0  0  0  0  0  0  0
  -11.2375    0.5977   -3.6778 C   0  0  0  0  0  0  0  0  0  0  0  0
  -10.2368   -0.4852   -3.9213 C   0  0  0  0  0  0  0  0  0  0  0  0
  -10.6152   -1.6163   -4.7916 C   0  0  0  0  0  0  0  0  0  0  0  0
   -9.6529   -2.5775   -4.9291 F   0  0  0  0  0  0  0  0  0  0  0  0
  -11.6962   -2.2810   -4.1312 F   0  0  0  0  0  0  0  0  0  0  0  0
  -11.1498   -1.3123   -6.0162 F   0  0  0  0  0  0  0  0  0  0  0  0
   -9.1475    0.1622   -4.5400 F   0  0  0  0  0  0  0  0  0  0  0  0
   -9.7726   -0.9077   -2.6821 F   0  0  0  0  0  0  0  0  0  0  0  0
  -11.5522    1.0862   -4.9573 F   0  0  0  0  0  0  0  0  0  0  0  0
  -12.4232   -0.0727   -3.2966 F   0  0  0  0  0  0  0  0  0  0  0  0
   -9.6817    2.2242   -3.1495 F   0  0  0  0  0  0  0  0  0  0  0  0
  -10.6074    1.0796   -1.5046 F   0  0  0  0  0  0  0  0  0  0  0  0
  -12.2172    3.2841   -3.8362 F   0  0  0  0  0  0  0  0  0  0  0  0
  -13.0537    2.3944   -2.0069 F   0  0  0  0  0  0  0  0  0  0  0  0
  -11.1919    3.6447   -0.4292 F   0  0  0  0  0  0  0  0  0  0  0  0
  -10.3519    4.6946   -2.2848 F   0  0  0  0  0  0  0  0  0  0  0  0
  -13.5244    4.2977   -0.9113 F   0  0  0  0  0  0  0  0  0  0  0  0
  -13.0403    5.2796   -2.9410 F   0  0  0  0  0  0  0  0  0  0  0  0
  -11.6771    7.2473   -1.6388 O   0  0  0  0  0  0  0  0  0  0  0  0
  1  2  2  0
  1  3  1  0
  3  4  1  0
  4  5  1  0
  5  6  1  0
  6  7  1  0
  7  8  1  0
  8  9  1  0
  9 10  1  0
  9 11  1  0
  9 12  1  0
  8 13  1  0
  8 14  1  0
  7 15  1  0
  7 16  1  0
  6 17  1  0
  6 18  1  0
  5 19  1  0
  5 20  1  0
  4 21  1  0
  4 22  1  0
  3 23  1  0
  3 24  1  0
  1 25  1  0
M  END
$$$$
