
     RDKit          3D

 59 63  0  0  0  0  0  0  0  0999 V2000
   10.6601  -35.9117   21.3771 C   0  0  0  0  0  0  0  0  0  0  0  0
   11.2978  -35.9650   22.7687 C   0  0  0  0  0  0  0  0  0  0  0  0
   11.4236  -34.5445   23.1802 C   0  0  0  0  0  0  0  0  0  0  0  0
   10.3794  -33.7315   23.3265 C   0  0  0  0  0  0  0  0  0  0  0  0
   10.4724  -32.3433   23.7244 C   0  0  0  0  0  0  0  0  0  0  0  0
   10.7733  -31.8879   24.9025 C   0  0  0  0  0  0  0  0  0  0  0  0
   11.0824  -32.6573   26.0885 C   0  0  0  0  0  0  0  0  0  0  0  0
   12.2751  -32.6541   26.4778 O   0  0  0  0  0  0  0  0  0  0  0  0
   10.1623  -33.4085   26.8510 N   0  0  0  0  0  0  0  0  0  0  0  0
    9.7284  -34.7223   26.6023 C   0  0  0  0  0  0  0  0  0  0  0  0
    8.5210  -35.0521   26.0314 C   0  0  0  0  0  0  0  0  0  0  0  0
    8.1553  -36.3814   25.8357 C   0  0  0  0  0  0  0  0  0  0  0  0
    8.9606  -37.4348   26.1950 C   0  0  0  0  0  0  0  0  0  0  0  0
   10.1895  -37.0831   26.7767 C   0  0  0  0  0  0  0  0  0  0  0  0
   10.5513  -35.7674   26.9687 C   0  0  0  0  0  0  0  0  0  0  0  0
   11.8028  -35.5162   27.5577 O   0  0  0  0  0  0  0  0  0  0  0  0
   11.0797  -38.0779   27.1974 C   0  0  0  0  0  0  0  0  0  0  0  0
   10.7890  -39.4210   27.0596 C   0  0  0  0  0  0  0  0  0  0  0  0
    9.5740  -39.7285   26.4841 C   0  0  0  0  0  0  0  0  0  0  0  0
    8.6982  -38.7455   26.0694 C   0  0  0  0  0  0  0  0  0  0  0  0
    7.5471  -39.4061   25.5242 C   0  0  0  0  0  0  0  0  0  0  0  0
    6.3780  -39.0562   25.2740 O   0  0  0  0  0  0  0  0  0  0  0  0
    8.0017  -40.8240   25.2407 C   0  0  0  0  0  0  0  0  0  0  0  0
    9.0149  -40.9691   26.2192 O   0  0  0  0  0  0  0  0  0  0  0  0
    8.5679  -40.9322   23.9539 O   0  0  0  0  0  0  0  0  0  0  0  0
    9.1243  -42.1534   23.5935 C   0  0  0  0  0  0  0  0  0  0  0  0
   10.1205  -42.2433   22.7516 C   0  0  0  0  0  0  0  0  0  0  0  0
   10.7735  -41.0863   22.0854 C   0  0  0  0  0  0  0  0  0  0  0  0
   12.0676  -40.6798   22.7064 C   0  0  0  0  0  0  0  0  0  0  0  0
   13.3009  -40.9450   21.8786 C   0  0  0  0  0  0  0  0  0  0  0  0
   13.8497  -39.7747   21.1476 C   0  0  0  0  0  0  0  0  0  0  0  0
   13.9173  -38.5709   22.0527 C   0  0  0  0  0  0  0  0  0  0  0  0
   12.8993  -37.5040   21.6089 C   0  0  0  0  0  0  0  0  0  0  0  0
   12.6658  -36.5706   22.7522 C   0  0  0  0  0  0  0  0  0  0  0  0
   12.8601  -37.1976   23.9782 O   0  0  0  0  0  0  0  0  0  0  0  0
   13.5333  -36.7029   20.4731 C   0  0  0  0  0  0  0  0  0  0  0  0
   15.1483  -37.8963   21.9806 O   0  0  0  0  0  0  0  0  0  0  0  0
   15.2734  -40.1109   20.7376 C   0  0  0  0  0  0  0  0  0  0  0  0
   13.1783  -42.1423   21.1746 O   0  0  0  0  0  0  0  0  0  0  0  0
   14.2475  -42.9542   20.8164 C   0  0  0  0  0  0  0  0  0  0  0  0
   14.1010  -43.7844   19.9120 O   0  0  0  0  0  0  0  0  0  0  0  0
   15.5157  -42.7533   21.5691 C   0  0  0  0  0  0  0  0  0  0  0  0
   12.1506  -41.4349   24.0459 C   0  0  0  0  0  0  0  0  0  0  0  0
   10.8294  -41.3703   20.7285 O   0  0  0  0  0  0  0  0  0  0  0  0
   10.6973  -42.7082   20.4413 C   0  0  0  0  0  0  0  0  0  0  0  0
    6.8495  -41.7805   25.4710 C   0  0  0  0  0  0  0  0  0  0  0  0
   11.7502  -40.4302   27.5305 C   0  0  0  0  0  0  0  0  0  0  0  0
   12.2982  -37.7493   27.7740 O   0  0  0  0  0  0  0  0  0  0  0  0
    6.8949  -36.5557   25.2402 O   0  0  0  0  0  0  0  0  0  0  0  0
    7.5807  -33.9750   25.6515 C   0  0  0  0  0  0  0  0  0  0  0  0
    8.0877  -33.0580   24.9179 N   0  0  0  0  0  0  0  0  0  0  0  0
    7.7315  -31.7375   24.8023 N   0  0  0  0  0  0  0  0  0  0  0  0
    8.6422  -30.6029   24.8024 C   0  0  0  0  0  0  0  0  0  0  0  0
    8.1331  -29.6827   23.7124 C   0  0  0  0  0  0  0  0  0  0  0  0
    6.9266  -29.0570   24.1544 N   0  0  0  0  0  0  0  0  0  0  0  0
    6.0512  -29.9568   24.8086 C   0  0  0  0  0  0  0  0  0  0  0  0
    6.3213  -31.4129   24.6554 C   0  0  0  0  0  0  0  0  0  0  0  0
    6.2663  -28.5285   22.9483 C   0  0  0  0  0  0  0  0  0  0  0  0
   10.8303  -30.3897   25.0815 C   0  0  0  0  0  0  0  0  0  0  0  0
  1  2  1  0
  2  3  1  0
  3  4  2  3
  4  5  1  0
  5  6  2  3
  6  7  1  0
  7  8  2  0
  7  9  1  0
  9 10  1  0
 10 11  1  0
 11 12  2  0
 12 13  1  0
 13 14  1  0
 14 15  1  0
 15 16  1  0
 14 17  2  0
 17 18  1  0
 18 19  2  0
 19 20  1  0
 20 21  1  0
 21 22  2  0
 21 23  1  0
 23 24  1  0
 23 25  1  0
 25 26  1  0
 26 27  2  3
 27 28  1  0
 28 29  1  0
 29 30  1  0
 30 31  1  0
 31 32  1  0
 32 33  1  0
 33 34  1  0
 34 35  1  0
 33 36  1  0
 32 37  1  0
 31 38  1  0
 30 39  1  0
 39 40  1  0
 40 41  2  0
 40 42  1  0
 29 43  1  0
 28 44  1  0
 44 45  1  0
 23 46  1  0
 18 47  1  0
 17 48  1  0
 12 49  1  0
 11 50  1  0
 50 51  2  3
 51 52  1  0
 52 53  1  0
 53 54  1  0
 54 55  1  0
 55 56  1  0
 56 57  1  0
 55 58  1  0
  6 59  1  0
 34  2  1  0
 15 10  2  0
 20 13  2  0
 24 19  1  0
 57 52  1  0
M  END
$$$$
