
     RDKit          3D

 59 63  0  0  0  0  0  0  0  0999 V2000
    0.5256  -48.8919   11.8111 C   0  0  0  0  0  0  0  0  0  0  0  0
    0.0071  -50.3309   11.7317 C   0  0  0  0  0  0  0  0  0  0  0  0
    0.3702  -50.9349   13.0380 C   0  0  0  0  0  0  0  0  0  0  0  0
   -0.0874  -50.4830   14.2038 C   0  0  0  0  0  0  0  0  0  0  0  0
    0.2510  -51.0505   15.4912 C   0  0  0  0  0  0  0  0  0  0  0  0
   -0.1489  -52.1887   15.9715 C   0  0  0  0  0  0  0  0  0  0  0  0
   -1.0237  -53.1507   15.3366 C   0  0  0  0  0  0  0  0  0  0  0  0
   -0.5040  -54.2209   14.9382 O   0  0  0  0  0  0  0  0  0  0  0  0
   -2.4112  -52.9967   15.1282 N   0  0  0  0  0  0  0  0  0  0  0  0
   -3.0394  -52.3275   14.0635 C   0  0  0  0  0  0  0  0  0  0  0  0
   -3.5764  -51.0634   14.1425 C   0  0  0  0  0  0  0  0  0  0  0  0
   -4.2011  -50.4757   13.0455 C   0  0  0  0  0  0  0  0  0  0  0  0
   -4.3229  -51.1082   11.8321 C   0  0  0  0  0  0  0  0  0  0  0  0
   -3.7705  -52.3977   11.7664 C   0  0  0  0  0  0  0  0  0  0  0  0
   -3.1512  -52.9781   12.8519 C   0  0  0  0  0  0  0  0  0  0  0  0
   -2.6279  -54.2724   12.6872 O   0  0  0  0  0  0  0  0  0  0  0  0
   -3.8547  -53.1403   10.5829 C   0  0  0  0  0  0  0  0  0  0  0  0
   -4.4740  -52.6425    9.4532 C   0  0  0  0  0  0  0  0  0  0  0  0
   -5.0043  -51.3735    9.5547 C   0  0  0  0  0  0  0  0  0  0  0  0
   -4.9192  -50.6430   10.7228 C   0  0  0  0  0  0  0  0  0  0  0  0
   -5.5649  -49.3843   10.4834 C   0  0  0  0  0  0  0  0  0  0  0  0
   -6.0235  -48.4864   11.2151 O   0  0  0  0  0  0  0  0  0  0  0  0
   -5.6346  -49.2557    8.9747 C   0  0  0  0  0  0  0  0  0  0  0  0
   -5.6746  -50.6213    8.6025 O   0  0  0  0  0  0  0  0  0  0  0  0
   -4.4666  -48.6587    8.4576 O   0  0  0  0  0  0  0  0  0  0  0  0
   -4.3435  -48.5701    7.0763 C   0  0  0  0  0  0  0  0  0  0  0  0
   -3.1809  -48.5867    6.4784 C   0  0  0  0  0  0  0  0  0  0  0  0
   -1.8723  -48.6989    7.1739 C   0  0  0  0  0  0  0  0  0  0  0  0
   -1.2821  -50.0686    7.1388 C   0  0  0  0  0  0  0  0  0  0  0  0
   -0.0430  -50.2242    6.2920 C   0  0  0  0  0  0  0  0  0  0  0  0
    1.2456  -50.2222    7.0298 C   0  0  0  0  0  0  0  0  0  0  0  0
    1.1637  -51.1200    8.2382 C   0  0  0  0  0  0  0  0  0  0  0  0
    1.2081  -50.2877    9.5331 C   0  0  0  0  0  0  0  0  0  0  0  0
    0.6700  -51.1228   10.6492 C   0  0  0  0  0  0  0  0  0  0  0  0
   -0.2502  -52.0611   10.1943 O   0  0  0  0  0  0  0  0  0  0  0  0
    2.6740  -49.9856    9.8397 C   0  0  0  0  0  0  0  0  0  0  0  0
    2.2709  -51.9767    8.3637 O   0  0  0  0  0  0  0  0  0  0  0  0
    2.3070  -50.8009    6.1096 C   0  0  0  0  0  0  0  0  0  0  0  0
   -0.1260  -49.4401    5.1420 O   0  0  0  0  0  0  0  0  0  0  0  0
    0.4881  -49.7512    3.9351 C   0  0  0  0  0  0  0  0  0  0  0  0
    0.5972  -48.8766    3.0680 O   0  0  0  0  0  0  0  0  0  0  0  0
    0.9784  -51.1479    3.7795 C   0  0  0  0  0  0  0  0  0  0  0  0
   -2.3985  -50.9982    6.6282 C   0  0  0  0  0  0  0  0  0  0  0  0
   -1.0575  -47.6886    6.6836 O   0  0  0  0  0  0  0  0  0  0  0  0
   -1.3725  -47.3017    5.4026 C   0  0  0  0  0  0  0  0  0  0  0  0
   -6.9037  -48.5246    8.5870 C   0  0  0  0  0  0  0  0  0  0  0  0
   -4.5506  -53.4665    8.2370 C   0  0  0  0  0  0  0  0  0  0  0  0
   -3.3147  -54.4156   10.4993 O   0  0  0  0  0  0  0  0  0  0  0  0
   -4.6960  -49.1825   13.2825 O   0  0  0  0  0  0  0  0  0  0  0  0
   -3.5194  -50.3308   15.4265 C   0  0  0  0  0  0  0  0  0  0  0  0
   -2.4991  -49.5717   15.5631 N   0  0  0  0  0  0  0  0  0  0  0  0
   -1.6261  -49.4658   16.6169 N   0  0  0  0  0  0  0  0  0  0  0  0
   -0.4718  -50.3174   16.8601 C   0  0  0  0  0  0  0  0  0  0  0  0
    0.6330  -49.3770   17.2952 C   0  0  0  0  0  0  0  0  0  0  0  0
    0.3587  -48.9142   18.6192 N   0  0  0  0  0  0  0  0  0  0  0  0
   -1.0011  -48.5687   18.8076 C   0  0  0  0  0  0  0  0  0  0  0  0
   -1.8448  -48.4083   17.5914 C   0  0  0  0  0  0  0  0  0  0  0  0
    1.1956  -47.7193   18.8237 C   0  0  0  0  0  0  0  0  0  0  0  0
    0.3521  -52.5875   17.3389 C   0  0  0  0  0  0  0  0  0  0  0  0
  1  2  1  0
  2  3  1  0
  3  4  2  3
  4  5  1  0
  5  6  2  3
  6  7  1  0
  7  8  2  0
  7  9  1  0
  9 10  1  0
 10 11  1  0
 11 12  2  0
 12 13  1  0
 13 14  1  0
 14 15  1  0
 15 16  1  0
 14 17  2  0
 17 18  1  0
 18 19  2  0
 19 20  1  0
 20 21  1  0
 21 22  2  0
 21 23  1  0
 23 24  1  0
 23 25  1  0
 25 26  1  0
 26 27  2  3
 27 28  1  0
 28 29  1  0
 29 30  1  0
 30 31  1  0
 31 32  1  0
 32 33  1  0
 33 34  1  0
 34 35  1  0
 33 36  1  0
 32 37  1  0
 31 38  1  0
 30 39  1  0
 39 40  1  0
 40 41  2  0
 40 42  1  0
 29 43  1  0
 28 44  1  0
 44 45  1  0
 23 46  1  0
 18 47  1  0
 17 48  1  0
 12 49  1  0
 11 50  1  0
 50 51  2  3
 51 52  1  0
 52 53  1  0
 53 54  1  0
 54 55  1  0
 55 56  1  0
 56 57  1  0
 55 58  1  0
  6 59  1  0
 34  2  1  0
 15 10  2  0
 20 13  2  0
 24 19  1  0
 57 52  1  0
M  END
$$$$
