
     RDKit          3D

 59 63  0  0  0  0  0  0  0  0999 V2000
    0.5959  -48.0190   28.4447 C   0  0  0  0  0  0  0  0  0  0  0  0
    1.2944  -48.7929   27.3226 C   0  0  0  0  0  0  0  0  0  0  0  0
    2.6027  -48.1126   27.1534 C   0  0  0  0  0  0  0  0  0  0  0  0
    3.5159  -48.0356   28.1192 C   0  0  0  0  0  0  0  0  0  0  0  0
    4.7976  -47.3778   27.9831 C   0  0  0  0  0  0  0  0  0  0  0  0
    5.8157  -47.7889   27.2898 C   0  0  0  0  0  0  0  0  0  0  0  0
    5.9080  -48.9957   26.4967 C   0  0  0  0  0  0  0  0  0  0  0  0
    5.9174  -48.8612   25.2494 O   0  0  0  0  0  0  0  0  0  0  0  0
    5.9931  -50.3120   26.9992 N   0  0  0  0  0  0  0  0  0  0  0  0
    4.9277  -51.1376   27.3980 C   0  0  0  0  0  0  0  0  0  0  0  0
    4.5607  -51.3643   28.7044 C   0  0  0  0  0  0  0  0  0  0  0  0
    3.5029  -52.2135   29.0190 C   0  0  0  0  0  0  0  0  0  0  0  0
    2.7686  -52.8723   28.0630 C   0  0  0  0  0  0  0  0  0  0  0  0
    3.1546  -52.6317   26.7344 C   0  0  0  0  0  0  0  0  0  0  0  0
    4.2005  -51.7901   26.4237 C   0  0  0  0  0  0  0  0  0  0  0  0
    4.5105  -51.6121   25.0641 O   0  0  0  0  0  0  0  0  0  0  0  0
    2.4861  -53.2662   25.6810 C   0  0  0  0  0  0  0  0  0  0  0  0
    1.4391  -54.1390   25.9034 C   0  0  0  0  0  0  0  0  0  0  0  0
    1.0876  -54.3505   27.2201 C   0  0  0  0  0  0  0  0  0  0  0  0
    1.7480  -53.7229   28.2571 C   0  0  0  0  0  0  0  0  0  0  0  0
    1.1351  -54.1625   29.4776 C   0  0  0  0  0  0  0  0  0  0  0  0
    1.4753  -54.1556   30.6759 O   0  0  0  0  0  0  0  0  0  0  0  0
   -0.2061  -54.7346   29.0633 C   0  0  0  0  0  0  0  0  0  0  0  0
    0.0922  -55.1595   27.7459 O   0  0  0  0  0  0  0  0  0  0  0  0
   -1.1990  -53.7343   29.0242 O   0  0  0  0  0  0  0  0  0  0  0  0
   -2.4588  -54.0923   28.5597 C   0  0  0  0  0  0  0  0  0  0  0  0
   -3.2462  -53.2409   27.9560 C   0  0  0  0  0  0  0  0  0  0  0  0
   -2.9111  -51.8171   27.6926 C   0  0  0  0  0  0  0  0  0  0  0  0
   -2.4719  -51.5462   26.2929 C   0  0  0  0  0  0  0  0  0  0  0  0
   -3.4302  -50.7386   25.4525 C   0  0  0  0  0  0  0  0  0  0  0  0
   -3.1048  -49.2967   25.3108 C   0  0  0  0  0  0  0  0  0  0  0  0
   -1.6428  -49.1141   24.9913 C   0  0  0  0  0  0  0  0  0  0  0  0
   -0.9088  -48.4599   26.1765 C   0  0  0  0  0  0  0  0  0  0  0  0
    0.5554  -48.7162   26.0239 C   0  0  0  0  0  0  0  0  0  0  0  0
    0.8032  -49.8967   25.3317 O   0  0  0  0  0  0  0  0  0  0  0  0
   -1.1316  -46.9514   26.0837 C   0  0  0  0  0  0  0  0  0  0  0  0
   -1.4184  -48.2161   23.9336 O   0  0  0  0  0  0  0  0  0  0  0  0
   -3.8948  -48.7575   24.1305 C   0  0  0  0  0  0  0  0  0  0  0  0
   -4.7515  -51.0731   25.7466 O   0  0  0  0  0  0  0  0  0  0  0  0
   -5.7381  -51.2838   24.7912 C   0  0  0  0  0  0  0  0  0  0  0  0
   -6.9257  -51.1480   25.1069 O   0  0  0  0  0  0  0  0  0  0  0  0
   -5.2737  -51.6650   23.4294 C   0  0  0  0  0  0  0  0  0  0  0  0
   -2.2288  -52.9244   25.6507 C   0  0  0  0  0  0  0  0  0  0  0  0
   -3.9805  -51.0534   28.1377 O   0  0  0  0  0  0  0  0  0  0  0  0
   -5.1545  -51.7607   28.2434 C   0  0  0  0  0  0  0  0  0  0  0  0
   -0.5616  -55.8971   29.9676 C   0  0  0  0  0  0  0  0  0  0  0  0
    0.7769  -54.7934   24.7644 C   0  0  0  0  0  0  0  0  0  0  0  0
    2.8535  -53.0406   24.3622 O   0  0  0  0  0  0  0  0  0  0  0  0
    3.2489  -52.3402   30.3949 O   0  0  0  0  0  0  0  0  0  0  0  0
    5.3268  -50.7210   29.7943 C   0  0  0  0  0  0  0  0  0  0  0  0
    5.2225  -49.4471   29.8404 N   0  0  0  0  0  0  0  0  0  0  0  0
    5.6709  -48.5696   30.7958 N   0  0  0  0  0  0  0  0  0  0  0  0
    6.7827  -47.6425   30.6511 C   0  0  0  0  0  0  0  0  0  0  0  0
    6.3076  -46.3489   31.2796 C   0  0  0  0  0  0  0  0  0  0  0  0
    6.2724  -46.5042   32.6998 N   0  0  0  0  0  0  0  0  0  0  0  0
    5.7257  -47.7468   33.1011 C   0  0  0  0  0  0  0  0  0  0  0  0
    4.9849  -48.5348   32.0779 C   0  0  0  0  0  0  0  0  0  0  0  0
    5.4283  -45.4133   33.2166 C   0  0  0  0  0  0  0  0  0  0  0  0
    7.0520  -46.9221   27.2783 C   0  0  0  0  0  0  0  0  0  0  0  0
  1  2  1  0
  2  3  1  0
  3  4  2  3
  4  5  1  0
  5  6  2  3
  6  7  1  0
  7  8  2  0
  7  9  1  0
  9 10  1  0
 10 11  1  0
 11 12  2  0
 12 13  1  0
 13 14  1  0
 14 15  1  0
 15 16  1  0
 14 17  2  0
 17 18  1  0
 18 19  2  0
 19 20  1  0
 20 21  1  0
 21 22  2  0
 21 23  1  0
 23 24  1  0
 23 25  1  0
 25 26  1  0
 26 27  2  3
 27 28  1  0
 28 29  1  0
 29 30  1  0
 30 31  1  0
 31 32  1  0
 32 33  1  0
 33 34  1  0
 34 35  1  0
 33 36  1  0
 32 37  1  0
 31 38  1  0
 30 39  1  0
 39 40  1  0
 40 41  2  0
 40 42  1  0
 29 43  1  0
 28 44  1  0
 44 45  1  0
 23 46  1  0
 18 47  1  0
 17 48  1  0
 12 49  1  0
 11 50  1  0
 50 51  2  3
 51 52  1  0
 52 53  1  0
 53 54  1  0
 54 55  1  0
 55 56  1  0
 56 57  1  0
 55 58  1  0
  6 59  1  0
 34  2  1  0
 15 10  2  0
 20 13  2  0
 24 19  1  0
 57 52  1  0
M  END
$$$$
