
     RDKit          3D

 59 63  0  0  0  0  0  0  0  0999 V2000
   -3.8838  -46.2867   14.3444 C   0  0  0  0  0  0  0  0  0  0  0  0
   -4.5152  -46.0479   12.9695 C   0  0  0  0  0  0  0  0  0  0  0  0
   -3.4844  -45.3013   12.2060 C   0  0  0  0  0  0  0  0  0  0  0  0
   -2.2778  -45.7940   11.9340 C   0  0  0  0  0  0  0  0  0  0  0  0
   -1.2535  -45.0886   11.1941 C   0  0  0  0  0  0  0  0  0  0  0  0
   -1.2469  -44.8332    9.9210 C   0  0  0  0  0  0  0  0  0  0  0  0
   -2.2554  -45.1937    8.9480 C   0  0  0  0  0  0  0  0  0  0  0  0
   -2.9633  -44.2660    8.4872 O   0  0  0  0  0  0  0  0  0  0  0  0
   -2.5130  -46.4952    8.4661 N   0  0  0  0  0  0  0  0  0  0  0  0
   -3.3184  -47.4779    9.0673 C   0  0  0  0  0  0  0  0  0  0  0  0
   -2.8400  -48.5485    9.7867 C   0  0  0  0  0  0  0  0  0  0  0  0
   -3.7043  -49.4920   10.3359 C   0  0  0  0  0  0  0  0  0  0  0  0
   -5.0692  -49.4198   10.1972 C   0  0  0  0  0  0  0  0  0  0  0  0
   -5.5431  -48.3222    9.4604 C   0  0  0  0  0  0  0  0  0  0  0  0
   -4.6873  -47.3881    8.9185 C   0  0  0  0  0  0  0  0  0  0  0  0
   -5.2574  -46.3239    8.1984 O   0  0  0  0  0  0  0  0  0  0  0  0
   -6.9161  -48.1609    9.2418 C   0  0  0  0  0  0  0  0  0  0  0  0
   -7.8424  -49.0598    9.7333 C   0  0  0  0  0  0  0  0  0  0  0  0
   -7.3407  -50.1245   10.4520 C   0  0  0  0  0  0  0  0  0  0  0  0
   -5.9862  -50.2808   10.6668 C   0  0  0  0  0  0  0  0  0  0  0  0
   -5.8152  -51.4769   11.4406 C   0  0  0  0  0  0  0  0  0  0  0  0
   -4.8534  -52.2326   11.6767 O   0  0  0  0  0  0  0  0  0  0  0  0
   -7.1788  -51.7597   12.0389 C   0  0  0  0  0  0  0  0  0  0  0  0
   -8.0156  -51.1720   11.0594 O   0  0  0  0  0  0  0  0  0  0  0  0
   -7.3471  -51.0898   13.2682 O   0  0  0  0  0  0  0  0  0  0  0  0
   -8.5900  -51.1724   13.8840 C   0  0  0  0  0  0  0  0  0  0  0  0
   -9.0528  -50.2184   14.6490 C   0  0  0  0  0  0  0  0  0  0  0  0
   -8.3339  -48.9541   14.9547 C   0  0  0  0  0  0  0  0  0  0  0  0
   -8.8047  -47.7815   14.1616 C   0  0  0  0  0  0  0  0  0  0  0  0
   -9.5421  -46.7200   14.9402 C   0  0  0  0  0  0  0  0  0  0  0  0
   -8.7448  -45.5239   15.3126 C   0  0  0  0  0  0  0  0  0  0  0  0
   -7.9478  -45.0317   14.1312 C   0  0  0  0  0  0  0  0  0  0  0  0
   -6.4425  -45.2592   14.3631 C   0  0  0  0  0  0  0  0  0  0  0  0
   -5.7481  -45.2032   13.0412 C   0  0  0  0  0  0  0  0  0  0  0  0
   -6.5845  -45.5957   12.0018 O   0  0  0  0  0  0  0  0  0  0  0  0
   -5.9243  -44.1004   15.2130 C   0  0  0  0  0  0  0  0  0  0  0  0
   -8.0420  -43.6419   13.9441 O   0  0  0  0  0  0  0  0  0  0  0  0
   -9.7165  -44.4195   15.6922 C   0  0  0  0  0  0  0  0  0  0  0  0
  -10.3394  -47.2941   15.9296 O   0  0  0  0  0  0  0  0  0  0  0  0
  -11.2824  -46.5997   16.6773 C   0  0  0  0  0  0  0  0  0  0  0  0
  -11.4518  -46.8974   17.8654 O   0  0  0  0  0  0  0  0  0  0  0  0
  -12.0313  -45.5254   15.9700 C   0  0  0  0  0  0  0  0  0  0  0  0
   -9.7067  -48.3543   13.0528 C   0  0  0  0  0  0  0  0  0  0  0  0
   -8.3601  -48.7884   16.3320 O   0  0  0  0  0  0  0  0  0  0  0  0
   -9.4111  -49.4302   16.9428 C   0  0  0  0  0  0  0  0  0  0  0  0
   -7.3872  -53.2570   12.1387 C   0  0  0  0  0  0  0  0  0  0  0  0
   -9.2743  -48.8558    9.4648 C   0  0  0  0  0  0  0  0  0  0  0  0
   -7.4026  -47.0828    8.5164 O   0  0  0  0  0  0  0  0  0  0  0  0
   -3.0649  -50.5235   11.0437 O   0  0  0  0  0  0  0  0  0  0  0  0
   -1.3793  -48.7179    9.9489 C   0  0  0  0  0  0  0  0  0  0  0  0
   -0.8824  -48.1220   10.9657 N   0  0  0  0  0  0  0  0  0  0  0  0
    0.2051  -48.4627   11.7306 N   0  0  0  0  0  0  0  0  0  0  0  0
    0.7009  -47.7310   12.8862 C   0  0  0  0  0  0  0  0  0  0  0  0
    1.0482  -48.7912   13.9106 C   0  0  0  0  0  0  0  0  0  0  0  0
    2.2348  -49.4713   13.4958 N   0  0  0  0  0  0  0  0  0  0  0  0
    2.2373  -49.7736   12.1128 C   0  0  0  0  0  0  0  0  0  0  0  0
    0.9440  -49.6664   11.3831 C   0  0  0  0  0  0  0  0  0  0  0  0
    2.2860  -50.7257   14.2665 C   0  0  0  0  0  0  0  0  0  0  0  0
   -0.0742  -44.0599    9.3672 C   0  0  0  0  0  0  0  0  0  0  0  0
  1  2  1  0
  2  3  1  0
  3  4  2  3
  4  5  1  0
  5  6  2  3
  6  7  1  0
  7  8  2  0
  7  9  1  0
  9 10  1  0
 10 11  1  0
 11 12  2  0
 12 13  1  0
 13 14  1  0
 14 15  1  0
 15 16  1  0
 14 17  2  0
 17 18  1  0
 18 19  2  0
 19 20  1  0
 20 21  1  0
 21 22  2  0
 21 23  1  0
 23 24  1  0
 23 25  1  0
 25 26  1  0
 26 27  2  3
 27 28  1  0
 28 29  1  0
 29 30  1  0
 30 31  1  0
 31 32  1  0
 32 33  1  0
 33 34  1  0
 34 35  1  0
 33 36  1  0
 32 37  1  0
 31 38  1  0
 30 39  1  0
 39 40  1  0
 40 41  2  0
 40 42  1  0
 29 43  1  0
 28 44  1  0
 44 45  1  0
 23 46  1  0
 18 47  1  0
 17 48  1  0
 12 49  1  0
 11 50  1  0
 50 51  2  3
 51 52  1  0
 52 53  1  0
 53 54  1  0
 54 55  1  0
 55 56  1  0
 56 57  1  0
 55 58  1  0
  6 59  1  0
 34  2  1  0
 15 10  2  0
 20 13  2  0
 24 19  1  0
 57 52  1  0
M  END
$$$$
