
     RDKit          3D

 59 63  0  0  0  0  0  0  0  0999 V2000
    4.4127  -50.3982   24.7306 C   0  0  0  0  0  0  0  0  0  0  0  0
    3.1287  -50.5262   25.5560 C   0  0  0  0  0  0  0  0  0  0  0  0
    3.2847  -49.5366   26.6512 C   0  0  0  0  0  0  0  0  0  0  0  0
    3.4125  -48.2282   26.4402 C   0  0  0  0  0  0  0  0  0  0  0  0
    3.5676  -47.2417   27.4875 C   0  0  0  0  0  0  0  0  0  0  0  0
    2.6587  -46.8433   28.3248 C   0  0  0  0  0  0  0  0  0  0  0  0
    1.2841  -47.2881   28.4056 C   0  0  0  0  0  0  0  0  0  0  0  0
    0.9717  -48.0059   29.3861 O   0  0  0  0  0  0  0  0  0  0  0  0
    0.2600  -46.9840   27.4830 N   0  0  0  0  0  0  0  0  0  0  0  0
   -0.0188  -47.6491   26.2764 C   0  0  0  0  0  0  0  0  0  0  0  0
    0.3388  -47.1901   25.0298 C   0  0  0  0  0  0  0  0  0  0  0  0
    0.0077  -47.8995   23.8782 C   0  0  0  0  0  0  0  0  0  0  0  0
   -0.6880  -49.0837   23.9084 C   0  0  0  0  0  0  0  0  0  0  0  0
   -1.0466  -49.5396   25.1874 C   0  0  0  0  0  0  0  0  0  0  0  0
   -0.7174  -48.8379   26.3267 C   0  0  0  0  0  0  0  0  0  0  0  0
   -1.1195  -49.3764   27.5614 O   0  0  0  0  0  0  0  0  0  0  0  0
   -1.7739  -50.7266   25.3335 C   0  0  0  0  0  0  0  0  0  0  0  0
   -2.1608  -51.4824   24.2442 C   0  0  0  0  0  0  0  0  0  0  0  0
   -1.7909  -51.0041   23.0047 C   0  0  0  0  0  0  0  0  0  0  0  0
   -1.0730  -49.8336   22.8635 C   0  0  0  0  0  0  0  0  0  0  0  0
   -0.8608  -49.6336   21.4586 C   0  0  0  0  0  0  0  0  0  0  0  0
   -0.5441  -48.6554   20.7552 O   0  0  0  0  0  0  0  0  0  0  0  0
   -1.1114  -50.9870   20.8237 C   0  0  0  0  0  0  0  0  0  0  0  0
   -2.0322  -51.5374   21.7480 O   0  0  0  0  0  0  0  0  0  0  0  0
    0.0623  -51.7679   20.8035 O   0  0  0  0  0  0  0  0  0  0  0  0
   -0.0393  -53.0753   20.3439 C   0  0  0  0  0  0  0  0  0  0  0  0
    0.7462  -54.0278   20.7741 C   0  0  0  0  0  0  0  0  0  0  0  0
    1.8225  -53.8469   21.7830 C   0  0  0  0  0  0  0  0  0  0  0  0
    1.4506  -54.3002   23.1547 C   0  0  0  0  0  0  0  0  0  0  0  0
    2.1667  -55.5317   23.6522 C   0  0  0  0  0  0  0  0  0  0  0  0
    3.3040  -55.2866   24.5750 C   0  0  0  0  0  0  0  0  0  0  0  0
    2.9192  -54.2832   25.6325 C   0  0  0  0  0  0  0  0  0  0  0  0
    3.6897  -52.9651   25.4319 C   0  0  0  0  0  0  0  0  0  0  0  0
    2.9711  -51.8819   26.1688 C   0  0  0  0  0  0  0  0  0  0  0  0
    1.6082  -52.1406   26.2663 O   0  0  0  0  0  0  0  0  0  0  0  0
    5.0670  -53.1317   26.0716 C   0  0  0  0  0  0  0  0  0  0  0  0
    3.2872  -54.6814   26.9292 O   0  0  0  0  0  0  0  0  0  0  0  0
    3.6139  -56.5933   25.2852 C   0  0  0  0  0  0  0  0  0  0  0  0
    2.3655  -56.4430   22.6157 O   0  0  0  0  0  0  0  0  0  0  0  0
    1.9235  -57.7601   22.6344 C   0  0  0  0  0  0  0  0  0  0  0  0
    2.4022  -58.5709   21.8331 O   0  0  0  0  0  0  0  0  0  0  0  0
    0.8833  -58.0977   23.6440 C   0  0  0  0  0  0  0  0  0  0  0  0
   -0.0698  -54.5424   23.1234 C   0  0  0  0  0  0  0  0  0  0  0  0
    2.9753  -54.4165   21.2616 O   0  0  0  0  0  0  0  0  0  0  0  0
    2.7371  -55.5224   20.4806 C   0  0  0  0  0  0  0  0  0  0  0  0
   -1.7285  -50.7967   19.4532 C   0  0  0  0  0  0  0  0  0  0  0  0
   -2.9372  -52.7153   24.4472 C   0  0  0  0  0  0  0  0  0  0  0  0
   -2.1369  -51.1926   26.5889 O   0  0  0  0  0  0  0  0  0  0  0  0
    0.4443  -47.3038   22.6831 O   0  0  0  0  0  0  0  0  0  0  0  0
    1.0572  -45.9024   24.9103 C   0  0  0  0  0  0  0  0  0  0  0  0
    2.0604  -45.7761   25.6936 N   0  0  0  0  0  0  0  0  0  0  0  0
    2.3441  -44.7787   26.5929 N   0  0  0  0  0  0  0  0  0  0  0  0
    2.5374  -44.9480   28.0249 C   0  0  0  0  0  0  0  0  0  0  0  0
    3.7237  -44.0731   28.3733 C   0  0  0  0  0  0  0  0  0  0  0  0
    3.3257  -42.7016   28.3177 N   0  0  0  0  0  0  0  0  0  0  0  0
    2.5189  -42.4111   27.1914 C   0  0  0  0  0  0  0  0  0  0  0  0
    2.4790  -43.4185   26.0958 C   0  0  0  0  0  0  0  0  0  0  0  0
    4.5665  -41.9113   28.2424 C   0  0  0  0  0  0  0  0  0  0  0  0
    3.0564  -45.8110   29.3525 C   0  0  0  0  0  0  0  0  0  0  0  0
  1  2  1  0
  2  3  1  0
  3  4  2  3
  4  5  1  0
  5  6  2  3
  6  7  1  0
  7  8  2  0
  7  9  1  0
  9 10  1  0
 10 11  1  0
 11 12  2  0
 12 13  1  0
 13 14  1  0
 14 15  1  0
 15 16  1  0
 14 17  2  0
 17 18  1  0
 18 19  2  0
 19 20  1  0
 20 21  1  0
 21 22  2  0
 21 23  1  0
 23 24  1  0
 23 25  1  0
 25 26  1  0
 26 27  2  3
 27 28  1  0
 28 29  1  0
 29 30  1  0
 30 31  1  0
 31 32  1  0
 32 33  1  0
 33 34  1  0
 34 35  1  0
 33 36  1  0
 32 37  1  0
 31 38  1  0
 30 39  1  0
 39 40  1  0
 40 41  2  0
 40 42  1  0
 29 43  1  0
 28 44  1  0
 44 45  1  0
 23 46  1  0
 18 47  1  0
 17 48  1  0
 12 49  1  0
 11 50  1  0
 50 51  2  3
 51 52  1  0
 52 53  1  0
 53 54  1  0
 54 55  1  0
 55 56  1  0
 56 57  1  0
 55 58  1  0
  6 59  1  0
 34  2  1  0
 15 10  2  0
 20 13  2  0
 24 19  1  0
 57 52  1  0
M  END
$$$$
