
     RDKit          3D

  4  3  0  0  0  0  0  0  0  0999 V2000
   -9.0021  -13.2150    3.2559 C   0  0  0  0  0  0  0  0  0  0  0  0
   -9.3238  -12.4468    1.9767 C   0  0  0  0  0  0  0  0  0  0  0  0
  -10.6426  -11.3030    2.2858 Cl  0  0  0  0  0  0  0  0  0  0  0  0
   -7.7388  -14.4208    2.9637 Cl  0  0  0  0  0  0  0  0  0  0  0  0
  1  2  1  0
  2  3  1  0
  1  4  1  0
M  END
$$$$
