
     RDKit          3D

  4  3  0  0  0  0  0  0  0  0999 V2000
   10.4602    5.9133  -18.9516 C   0  0  0  0  0  0  0  0  0  0  0  0
    9.5916    4.8019  -19.5349 C   0  0  0  0  0  0  0  0  0  0  0  0
   10.5357    3.3054  -19.6454 Cl  0  0  0  0  0  0  0  0  0  0  0  0
    9.5823    7.4509  -18.9303 Cl  0  0  0  0  0  0  0  0  0  0  0  0
  1  2  1  0
  2  3  1  0
  1  4  1  0
M  END
$$$$
