
     RDKit          3D

 29 28  0  0  0  0  0  0  0  0999 V2000
    3.8651    4.7878  -13.5405 C   0  0  0  0  0  0  0  0  0  0  0  0
    3.2168    5.3523  -14.7301 C   0  0  0  0  0  0  0  0  0  0  0  0
    3.9811    6.4226  -15.4676 C   0  0  0  0  0  0  0  0  0  0  0  0
    3.2205    6.7363  -16.7586 C   0  0  0  0  0  0  0  0  0  0  0  0
    3.7918    8.0191  -17.3115 C   0  0  0  0  0  0  0  0  0  0  0  0
    3.7962    8.9975  -16.3610 F   0  0  0  0  0  0  0  0  0  0  0  0
    5.1110    7.7217  -17.6584 F   0  0  0  0  0  0  0  0  0  0  0  0
    2.9672    8.5318  -18.7881 S   0  0  0  0  0  0  0  0  0  0  0  0
    1.4884    8.2752  -18.7114 O   0  0  0  0  0  0  0  0  0  0  0  0
    3.5063    7.8302  -19.9826 O   0  0  0  0  0  0  0  0  0  0  0  0
    3.3075   10.1793  -19.0117 O   0  0  0  0  0  0  0  0  0  0  0  0
    3.4199    5.7441  -17.6937 F   0  0  0  0  0  0  0  0  0  0  0  0
    1.8728    6.8407  -16.4939 F   0  0  0  0  0  0  0  0  0  0  0  0
    5.2786    6.1347  -15.7274 F   0  0  0  0  0  0  0  0  0  0  0  0
    3.9496    7.5491  -14.6524 F   0  0  0  0  0  0  0  0  0  0  0  0
    2.0698    6.0249  -14.2693 F   0  0  0  0  0  0  0  0  0  0  0  0
    2.7259    4.4349  -15.6278 F   0  0  0  0  0  0  0  0  0  0  0  0
    3.1019    3.9665  -12.5847 C   0  0  0  0  0  0  0  0  0  0  0  0
    3.8832    3.1307  -11.6238 C   0  0  0  0  0  0  0  0  0  0  0  0
    2.9717    2.2190  -10.7900 C   0  0  0  0  0  0  0  0  0  0  0  0
    2.5931    1.1174  -11.5453 F   0  0  0  0  0  0  0  0  0  0  0  0
    3.6476    1.7105   -9.6978 F   0  0  0  0  0  0  0  0  0  0  0  0
    1.8910    2.9088  -10.2755 F   0  0  0  0  0  0  0  0  0  0  0  0
    4.6745    2.2766  -12.4026 F   0  0  0  0  0  0  0  0  0  0  0  0
    4.6472    3.8353  -10.7273 F   0  0  0  0  0  0  0  0  0  0  0  0
    2.4243    3.0246  -13.3935 F   0  0  0  0  0  0  0  0  0  0  0  0
    2.0558    4.6570  -11.9827 F   0  0  0  0  0  0  0  0  0  0  0  0
    4.9014    3.9649  -14.0172 F   0  0  0  0  0  0  0  0  0  0  0  0
    4.5412    5.7916  -12.8525 F   0  0  0  0  0  0  0  0  0  0  0  0
  1  2  1  0
  2  3  1  0
  3  4  1  0
  4  5  1  0
  5  6  1  0
  5  7  1  0
  5  8  1  0
  8  9  2  0
  8 10  2  0
  8 11  1  0
  4 12  1  0
  4 13  1  0
  3 14  1  0
  3 15  1  0
  2 16  1  0
  2 17  1  0
  1 18  1  0
 18 19  1  0
 19 20  1  0
 20 21  1  0
 20 22  1  0
 20 23  1  0
 19 24  1  0
 19 25  1  0
 18 26  1  0
 18 27  1  0
  1 28  1  0
  1 29  1  0
M  END
$$$$
