
     RDKit          3D

 29 28  0  0  0  0  0  0  0  0999 V2000
   -1.4421   -4.3803  -13.7560 C   0  0  0  0  0  0  0  0  0  0  0  0
   -0.7660   -3.9715  -14.9928 C   0  0  0  0  0  0  0  0  0  0  0  0
   -1.5604   -3.1061  -15.9382 C   0  0  0  0  0  0  0  0  0  0  0  0
   -0.7780   -3.0044  -17.2501 C   0  0  0  0  0  0  0  0  0  0  0  0
   -1.6278   -2.2148  -18.2154 C   0  0  0  0  0  0  0  0  0  0  0  0
   -2.9147   -2.6674  -18.2110 F   0  0  0  0  0  0  0  0  0  0  0  0
   -1.6101   -0.9019  -17.7412 F   0  0  0  0  0  0  0  0  0  0  0  0
   -0.9381   -2.1912  -19.8423 S   0  0  0  0  0  0  0  0  0  0  0  0
   -1.8075   -1.4247  -20.7989 O   0  0  0  0  0  0  0  0  0  0  0  0
   -0.7518   -3.5671  -20.3731 O   0  0  0  0  0  0  0  0  0  0  0  0
    0.6136   -1.5140  -19.7242 O   0  0  0  0  0  0  0  0  0  0  0  0
    0.4011   -2.3170  -17.0609 F   0  0  0  0  0  0  0  0  0  0  0  0
   -0.4922   -4.2661  -17.7232 F   0  0  0  0  0  0  0  0  0  0  0  0
   -1.8814   -1.8770  -15.4690 F   0  0  0  0  0  0  0  0  0  0  0  0
   -2.7456   -3.7914  -16.1835 F   0  0  0  0  0  0  0  0  0  0  0  0
   -0.5493   -5.1510  -15.7293 F   0  0  0  0  0  0  0  0  0  0  0  0
    0.4927   -3.4439  -14.8324 F   0  0  0  0  0  0  0  0  0  0  0  0
   -0.7947   -5.3120  -12.8160 C   0  0  0  0  0  0  0  0  0  0  0  0
   -1.4370   -5.4920  -11.4791 C   0  0  0  0  0  0  0  0  0  0  0  0
   -0.7448   -6.5890  -10.6577 C   0  0  0  0  0  0  0  0  0  0  0  0
    0.6089   -6.3039  -10.5416 F   0  0  0  0  0  0  0  0  0  0  0  0
   -1.2334   -6.6213   -9.3659 F   0  0  0  0  0  0  0  0  0  0  0  0
   -0.9815   -7.8456  -11.1806 F   0  0  0  0  0  0  0  0  0  0  0  0
   -1.2266   -4.2963  -10.7803 F   0  0  0  0  0  0  0  0  0  0  0  0
   -2.7696   -5.8193  -11.5130 F   0  0  0  0  0  0  0  0  0  0  0  0
    0.4508   -4.7084  -12.5248 F   0  0  0  0  0  0  0  0  0  0  0  0
   -0.4185   -6.5129  -13.4073 F   0  0  0  0  0  0  0  0  0  0  0  0
   -1.6735   -3.1973  -13.0312 F   0  0  0  0  0  0  0  0  0  0  0  0
   -2.7249   -4.8348  -14.0494 F   0  0  0  0  0  0  0  0  0  0  0  0
  1  2  1  0
  2  3  1  0
  3  4  1  0
  4  5  1  0
  5  6  1  0
  5  7  1  0
  5  8  1  0
  8  9  2  0
  8 10  2  0
  8 11  1  0
  4 12  1  0
  4 13  1  0
  3 14  1  0
  3 15  1  0
  2 16  1  0
  2 17  1  0
  1 18  1  0
 18 19  1  0
 19 20  1  0
 20 21  1  0
 20 22  1  0
 20 23  1  0
 19 24  1  0
 19 25  1  0
 18 26  1  0
 18 27  1  0
  1 28  1  0
  1 29  1  0
M  END
$$$$
