
     RDKit          3D

 29 28  0  0  0  0  0  0  0  0999 V2000
   -2.0478    0.4710  -13.6979 C   0  0  0  0  0  0  0  0  0  0  0  0
   -1.4982    0.2436  -15.0396 C   0  0  0  0  0  0  0  0  0  0  0  0
   -2.2427    0.8784  -16.1870 C   0  0  0  0  0  0  0  0  0  0  0  0
   -1.6346    0.3509  -17.4892 C   0  0  0  0  0  0  0  0  0  0  0  0
   -2.4772    0.8840  -18.6221 C   0  0  0  0  0  0  0  0  0  0  0  0
   -3.8033    0.6717  -18.3819 F   0  0  0  0  0  0  0  0  0  0  0  0
   -2.2388    2.2592  -18.6501 F   0  0  0  0  0  0  0  0  0  0  0  0
   -1.9740    0.2353  -20.1870 S   0  0  0  0  0  0  0  0  0  0  0  0
   -2.0994   -1.2617  -20.2297 O   0  0  0  0  0  0  0  0  0  0  0  0
   -0.5670    0.5998  -20.4987 O   0  0  0  0  0  0  0  0  0  0  0  0
   -2.9312    0.9793  -21.3746 O   0  0  0  0  0  0  0  0  0  0  0  0
   -0.3515    0.8253  -17.6539 F   0  0  0  0  0  0  0  0  0  0  0  0
   -1.6059   -1.0260  -17.4679 F   0  0  0  0  0  0  0  0  0  0  0  0
   -2.2739    2.2322  -16.1804 F   0  0  0  0  0  0  0  0  0  0  0  0
   -3.5531    0.4215  -16.0954 F   0  0  0  0  0  0  0  0  0  0  0  0
   -1.6262   -1.1359  -15.2870 F   0  0  0  0  0  0  0  0  0  0  0  0
   -0.1517    0.4820  -15.1756 F   0  0  0  0  0  0  0  0  0  0  0  0
   -1.5475   -0.2901  -12.5398 C   0  0  0  0  0  0  0  0  0  0  0  0
   -2.0912    0.0719  -11.1961 C   0  0  0  0  0  0  0  0  0  0  0  0
   -1.3278   -0.6309  -10.0645 C   0  0  0  0  0  0  0  0  0  0  0  0
   -0.0246   -0.1551  -10.0123 F   0  0  0  0  0  0  0  0  0  0  0  0
   -1.8845   -0.3353   -8.8353 F   0  0  0  0  0  0  0  0  0  0  0  0
   -1.3884   -2.0058  -10.1837 F   0  0  0  0  0  0  0  0  0  0  0  0
   -1.8483    1.4418  -11.0324 F   0  0  0  0  0  0  0  0  0  0  0  0
   -3.4182   -0.2231  -11.0065 F   0  0  0  0  0  0  0  0  0  0  0  0
   -0.1764    0.0485  -12.4627 F   0  0  0  0  0  0  0  0  0  0  0  0
   -1.5087   -1.6622  -12.7617 F   0  0  0  0  0  0  0  0  0  0  0  0
   -1.8071    1.8254  -13.4046 F   0  0  0  0  0  0  0  0  0  0  0  0
   -3.4371    0.3920  -13.7392 F   0  0  0  0  0  0  0  0  0  0  0  0
  1  2  1  0
  2  3  1  0
  3  4  1  0
  4  5  1  0
  5  6  1  0
  5  7  1  0
  5  8  1  0
  8  9  2  0
  8 10  2  0
  8 11  1  0
  4 12  1  0
  4 13  1  0
  3 14  1  0
  3 15  1  0
  2 16  1  0
  2 17  1  0
  1 18  1  0
 18 19  1  0
 19 20  1  0
 20 21  1  0
 20 22  1  0
 20 23  1  0
 19 24  1  0
 19 25  1  0
 18 26  1  0
 18 27  1  0
  1 28  1  0
  1 29  1  0
M  END
$$$$
