
     RDKit          3D

 29 28  0  0  0  0  0  0  0  0999 V2000
   -2.0976    0.2189  -13.7757 C   0  0  0  0  0  0  0  0  0  0  0  0
   -1.4804    0.6070  -15.0495 C   0  0  0  0  0  0  0  0  0  0  0  0
   -2.4010    0.7054  -16.2397 C   0  0  0  0  0  0  0  0  0  0  0  0
   -1.5377    0.6767  -17.5035 C   0  0  0  0  0  0  0  0  0  0  0  0
   -2.4648    0.4418  -18.6709 C   0  0  0  0  0  0  0  0  0  0  0  0
   -3.1941   -0.6968  -18.4897 F   0  0  0  0  0  0  0  0  0  0  0  0
   -3.3325    1.5354  -18.6850 F   0  0  0  0  0  0  0  0  0  0  0  0
   -1.6033    0.4396  -20.2139 S   0  0  0  0  0  0  0  0  0  0  0  0
   -0.4997   -0.5805  -20.2280 O   0  0  0  0  0  0  0  0  0  0  0  0
   -1.0168    1.7730  -20.5101 O   0  0  0  0  0  0  0  0  0  0  0  0
   -2.7474    0.1433  -21.4319 O   0  0  0  0  0  0  0  0  0  0  0  0
   -0.9135    1.8904  -17.6937 F   0  0  0  0  0  0  0  0  0  0  0  0
   -0.5814   -0.3087  -17.3945 F   0  0  0  0  0  0  0  0  0  0  0  0
   -3.2314    1.7751  -16.2442 F   0  0  0  0  0  0  0  0  0  0  0  0
   -3.1856   -0.4428  -16.2154 F   0  0  0  0  0  0  0  0  0  0  0  0
   -0.6051   -0.4392  -15.3957 F   0  0  0  0  0  0  0  0  0  0  0  0
   -0.6701    1.7158  -15.0006 F   0  0  0  0  0  0  0  0  0  0  0  0
   -1.2660   -0.1644  -12.6215 C   0  0  0  0  0  0  0  0  0  0  0  0
   -1.9091   -0.1306  -11.2732 C   0  0  0  0  0  0  0  0  0  0  0  0
   -0.9204   -0.5080  -10.1610 C   0  0  0  0  0  0  0  0  0  0  0  0
   -0.2316   -1.6597  -10.5171 F   0  0  0  0  0  0  0  0  0  0  0  0
    0.0419    0.4705  -10.0026 F   0  0  0  0  0  0  0  0  0  0  0  0
   -1.5477   -0.6202   -8.9353 F   0  0  0  0  0  0  0  0  0  0  0  0
   -2.2593    1.2057  -11.0408 F   0  0  0  0  0  0  0  0  0  0  0  0
   -2.9919   -0.9608  -11.1239 F   0  0  0  0  0  0  0  0  0  0  0  0
   -0.2707    0.8385  -12.5571 F   0  0  0  0  0  0  0  0  0  0  0  0
   -0.5207   -1.3172  -12.8423 F   0  0  0  0  0  0  0  0  0  0  0  0
   -2.8537    1.3285  -13.3570 F   0  0  0  0  0  0  0  0  0  0  0  0
   -3.0604   -0.7616  -13.9992 F   0  0  0  0  0  0  0  0  0  0  0  0
  1  2  1  0
  2  3  1  0
  3  4  1  0
  4  5  1  0
  5  6  1  0
  5  7  1  0
  5  8  1  0
  8  9  2  0
  8 10  2  0
  8 11  1  0
  4 12  1  0
  4 13  1  0
  3 14  1  0
  3 15  1  0
  2 16  1  0
  2 17  1  0
  1 18  1  0
 18 19  1  0
 19 20  1  0
 20 21  1  0
 20 22  1  0
 20 23  1  0
 19 24  1  0
 19 25  1  0
 18 26  1  0
 18 27  1  0
  1 28  1  0
  1 29  1  0
M  END
$$$$
