
     RDKit          3D

 29 28  0  0  0  0  0  0  0  0999 V2000
    5.1556    6.4002  -11.4886 C   0  0  0  0  0  0  0  0  0  0  0  0
    4.8969    4.9991  -11.8408 C   0  0  0  0  0  0  0  0  0  0  0  0
    4.0553    4.2073  -10.8720 C   0  0  0  0  0  0  0  0  0  0  0  0
    3.5740    2.9451  -11.5924 C   0  0  0  0  0  0  0  0  0  0  0  0
    2.7917    2.1315  -10.5906 C   0  0  0  0  0  0  0  0  0  0  0  0
    3.6167    1.6161   -9.6342 F   0  0  0  0  0  0  0  0  0  0  0  0
    1.9088    3.0295   -9.9880 F   0  0  0  0  0  0  0  0  0  0  0  0
    1.8143    0.8812  -11.3680 S   0  0  0  0  0  0  0  0  0  0  0  0
    2.6720   -0.1225  -12.0859 O   0  0  0  0  0  0  0  0  0  0  0  0
    0.8581    1.4678  -12.3434 O   0  0  0  0  0  0  0  0  0  0  0  0
    0.8719    0.1514  -10.1599 O   0  0  0  0  0  0  0  0  0  0  0  0
    2.7276    3.2703  -12.6299 F   0  0  0  0  0  0  0  0  0  0  0  0
    4.6538    2.2518  -12.0932 F   0  0  0  0  0  0  0  0  0  0  0  0
    3.0150    4.8787  -10.3237 F   0  0  0  0  0  0  0  0  0  0  0  0
    4.9088    3.8284   -9.8412 F   0  0  0  0  0  0  0  0  0  0  0  0
    6.1441    4.3484  -11.8018 F   0  0  0  0  0  0  0  0  0  0  0  0
    4.4498    4.7841  -13.1223 F   0  0  0  0  0  0  0  0  0  0  0  0
    6.2080    7.1680  -12.1768 C   0  0  0  0  0  0  0  0  0  0  0  0
    6.1547    8.6568  -12.0626 C   0  0  0  0  0  0  0  0  0  0  0  0
    7.4117    9.3181  -12.6456 C   0  0  0  0  0  0  0  0  0  0  0  0
    8.5240    8.9478  -11.9017 F   0  0  0  0  0  0  0  0  0  0  0  0
    7.6541    8.8714  -13.9301 F   0  0  0  0  0  0  0  0  0  0  0  0
    7.2695   10.6886  -12.7447 F   0  0  0  0  0  0  0  0  0  0  0  0
    5.0896    9.0729  -12.8717 F   0  0  0  0  0  0  0  0  0  0  0  0
    6.0244    9.1381  -10.7838 F   0  0  0  0  0  0  0  0  0  0  0  0
    5.9849    6.9166  -13.5507 F   0  0  0  0  0  0  0  0  0  0  0  0
    7.4829    6.6502  -11.9772 F   0  0  0  0  0  0  0  0  0  0  0  0
    3.9532    7.0891  -11.7294 F   0  0  0  0  0  0  0  0  0  0  0  0
    5.3231    6.5157  -10.1114 F   0  0  0  0  0  0  0  0  0  0  0  0
  1  2  1  0
  2  3  1  0
  3  4  1  0
  4  5  1  0
  5  6  1  0
  5  7  1  0
  5  8  1  0
  8  9  2  0
  8 10  2  0
  8 11  1  0
  4 12  1  0
  4 13  1  0
  3 14  1  0
  3 15  1  0
  2 16  1  0
  2 17  1  0
  1 18  1  0
 18 19  1  0
 19 20  1  0
 20 21  1  0
 20 22  1  0
 20 23  1  0
 19 24  1  0
 19 25  1  0
 18 26  1  0
 18 27  1  0
  1 28  1  0
  1 29  1  0
M  END
$$$$
