
     RDKit          3D

 24 27  0  0  0  0  0  0  0  0999 V2000
   23.5972  -45.1315   49.5487 C   0  0  0  0  0  0  0  0  0  0  0  0
   23.6270  -44.8115   48.0816 C   0  0  0  0  0  0  0  0  0  0  0  0
   22.9075  -43.8972   49.0471 C   0  0  0  0  0  0  0  0  0  0  0  0
   21.4695  -43.8168   49.0044 N   0  0  0  0  0  0  0  0  0  0  0  0
   20.7236  -44.5752   49.8385 C   0  0  0  0  0  0  0  0  0  0  0  0
   19.3443  -44.5410   49.8435 C   0  0  0  0  0  0  0  0  0  0  0  0
   18.7161  -43.6872   48.9486 C   0  0  0  0  0  0  0  0  0  0  0  0
   17.4610  -43.6657   48.9634 O   0  0  0  0  0  0  0  0  0  0  0  0
   19.4899  -42.9219   48.1063 C   0  0  0  0  0  0  0  0  0  0  0  0
   18.8573  -42.0745   47.2184 C   0  0  0  0  0  0  0  0  0  0  0  0
   19.5470  -41.2661   46.3325 C   0  0  0  0  0  0  0  0  0  0  0  0
   20.9289  -41.3322   46.3617 C   0  0  0  0  0  0  0  0  0  0  0  0
   21.5688  -42.1823   47.2522 C   0  0  0  0  0  0  0  0  0  0  0  0
   20.8705  -42.9850   48.1323 C   0  0  0  0  0  0  0  0  0  0  0  0
   21.7484  -40.5437   45.4932 N   0  0  0  0  0  0  0  0  0  0  0  0
   21.1777  -40.1185   44.2182 C   0  0  0  0  0  0  0  0  0  0  0  0
   22.3417  -39.6236   43.3807 C   0  0  0  0  0  0  0  0  0  0  0  0
   22.8813  -38.4943   44.1081 N   0  0  0  0  0  0  0  0  0  0  0  0
   23.5890  -38.9312   45.2650 C   0  0  0  0  0  0  0  0  0  0  0  0
   23.0912  -40.1978   45.8953 C   0  0  0  0  0  0  0  0  0  0  0  0
   18.9227  -40.4394   45.4666 F   0  0  0  0  0  0  0  0  0  0  0  0
   18.6001  -45.3849   50.7689 C   0  0  0  0  0  0  0  0  0  0  0  0
   19.1780  -46.0984   51.6442 O   0  0  0  0  0  0  0  0  0  0  0  0
   17.2239  -45.4449   50.7331 O   0  0  0  0  0  0  0  0  0  0  0  0
  1  2  1  0
  2  3  1  0
  3  4  1  0
  4  5  1  0
  5  6  2  0
  6  7  1  0
  7  8  2  0
  7  9  1  0
  9 10  1  0
 10 11  2  0
 11 12  1  0
 12 13  2  0
 13 14  1  0
 12 15  1  0
 15 16  1  0
 16 17  1  0
 17 18  1  0
 18 19  1  0
 19 20  1  0
 11 21  1  0
  6 22  1  0
 22 23  2  0
 22 24  1  0
  3  1  1  0
 14  4  1  0
 14  9  2  0
 20 15  1  0
M  END
$$$$
