
     RDKit          3D

 29 28  0  0  0  0  0  0  0  0999 V2000
  -10.6363    9.7974  -12.4168 C   0  0  0  0  0  0  0  0  0  0  0  0
  -10.9048    8.6235  -11.4959 C   0  0  0  0  0  0  0  0  0  0  0  0
  -11.7850    8.8927  -10.3445 C   0  0  0  0  0  0  0  0  0  0  0  0
  -12.2914    7.7861   -9.5103 C   0  0  0  0  0  0  0  0  0  0  0  0
  -13.2749    8.1173   -8.4437 C   0  0  0  0  0  0  0  0  0  0  0  0
  -12.7874    8.7035   -7.3091 F   0  0  0  0  0  0  0  0  0  0  0  0
  -14.2589    8.9087   -9.0383 F   0  0  0  0  0  0  0  0  0  0  0  0
  -14.0516    6.5903   -7.8781 S   0  0  0  0  0  0  0  0  0  0  0  0
  -14.8568    5.9636   -8.9676 O   0  0  0  0  0  0  0  0  0  0  0  0
  -12.9686    5.7195   -7.3459 O   0  0  0  0  0  0  0  0  0  0  0  0
  -15.1228    6.9339   -6.6213 O   0  0  0  0  0  0  0  0  0  0  0  0
  -11.3182    6.9302   -9.0165 F   0  0  0  0  0  0  0  0  0  0  0  0
  -13.0150    6.9515  -10.4107 F   0  0  0  0  0  0  0  0  0  0  0  0
  -12.8927    9.6130  -10.8294 F   0  0  0  0  0  0  0  0  0  0  0  0
  -11.1764    9.8203   -9.4708 F   0  0  0  0  0  0  0  0  0  0  0  0
   -9.6596    8.2429  -10.9705 F   0  0  0  0  0  0  0  0  0  0  0  0
  -11.3006    7.5854  -12.3202 F   0  0  0  0  0  0  0  0  0  0  0  0
   -9.4725    9.4148  -13.2832 C   0  0  0  0  0  0  0  0  0  0  0  0
   -8.8053   10.5375  -13.9731 C   0  0  0  0  0  0  0  0  0  0  0  0
   -7.8786   10.2159  -15.0935 C   0  0  0  0  0  0  0  0  0  0  0  0
   -6.7784    9.4797  -14.7009 F   0  0  0  0  0  0  0  0  0  0  0  0
   -7.3214   11.4514  -15.5188 F   0  0  0  0  0  0  0  0  0  0  0  0
   -8.4714    9.7142  -16.2195 F   0  0  0  0  0  0  0  0  0  0  0  0
   -9.8005   11.3743  -14.4588 F   0  0  0  0  0  0  0  0  0  0  0  0
   -8.0983   11.2930  -13.0338 F   0  0  0  0  0  0  0  0  0  0  0  0
   -8.5203    8.7804  -12.4935 F   0  0  0  0  0  0  0  0  0  0  0  0
   -9.8868    8.4784  -14.2229 F   0  0  0  0  0  0  0  0  0  0  0  0
  -10.3321   10.9406  -11.6994 F   0  0  0  0  0  0  0  0  0  0  0  0
  -11.7521    9.9827  -13.1989 F   0  0  0  0  0  0  0  0  0  0  0  0
  1  2  1  0
  2  3  1  0
  3  4  1  0
  4  5  1  0
  5  6  1  0
  5  7  1  0
  5  8  1  0
  8  9  2  0
  8 10  2  0
  8 11  1  0
  4 12  1  0
  4 13  1  0
  3 14  1  0
  3 15  1  0
  2 16  1  0
  2 17  1  0
  1 18  1  0
 18 19  1  0
 19 20  1  0
 20 21  1  0
 20 22  1  0
 20 23  1  0
 19 24  1  0
 19 25  1  0
 18 26  1  0
 18 27  1  0
  1 28  1  0
  1 29  1  0
M  END
$$$$
