
     RDKit          3D

 29 28  0  0  0  0  0  0  0  0999 V2000
   -6.3144   10.5987  -20.1832 C   0  0  0  0  0  0  0  0  0  0  0  0
   -6.6908   10.0166  -18.8350 C   0  0  0  0  0  0  0  0  0  0  0  0
   -8.1124    9.6716  -18.6534 C   0  0  0  0  0  0  0  0  0  0  0  0
   -8.7437    9.7606  -17.3228 C   0  0  0  0  0  0  0  0  0  0  0  0
  -10.1232    9.2228  -17.1739 C   0  0  0  0  0  0  0  0  0  0  0  0
  -11.1027    9.8066  -17.9277 F   0  0  0  0  0  0  0  0  0  0  0  0
  -10.0467    7.8510  -17.4197 F   0  0  0  0  0  0  0  0  0  0  0  0
  -10.6540    9.4558  -15.4654 S   0  0  0  0  0  0  0  0  0  0  0  0
   -9.7199    8.7798  -14.5175 O   0  0  0  0  0  0  0  0  0  0  0  0
  -10.7873   10.9214  -15.2446 O   0  0  0  0  0  0  0  0  0  0  0  0
  -12.1675    8.7453  -15.2426 O   0  0  0  0  0  0  0  0  0  0  0  0
   -8.6424   10.9990  -16.7067 F   0  0  0  0  0  0  0  0  0  0  0  0
   -7.9476    8.9275  -16.4844 F   0  0  0  0  0  0  0  0  0  0  0  0
   -8.2837    8.3578  -19.1283 F   0  0  0  0  0  0  0  0  0  0  0  0
   -8.9145   10.4235  -19.5396 F   0  0  0  0  0  0  0  0  0  0  0  0
   -6.3912   11.0040  -17.8827 F   0  0  0  0  0  0  0  0  0  0  0  0
   -5.7932    8.9885  -18.6087 F   0  0  0  0  0  0  0  0  0  0  0  0
   -4.8984   11.0818  -20.0697 C   0  0  0  0  0  0  0  0  0  0  0  0
   -4.3872   11.8151  -21.2455 C   0  0  0  0  0  0  0  0  0  0  0  0
   -2.9496   12.2035  -21.2545 C   0  0  0  0  0  0  0  0  0  0  0  0
   -2.0943   11.1453  -21.0197 F   0  0  0  0  0  0  0  0  0  0  0  0
   -2.7564   13.0475  -20.1283 F   0  0  0  0  0  0  0  0  0  0  0  0
   -2.5560   12.9712  -22.3159 F   0  0  0  0  0  0  0  0  0  0  0  0
   -4.6317   11.0277  -22.3621 F   0  0  0  0  0  0  0  0  0  0  0  0
   -5.1468   12.9743  -21.4243 F   0  0  0  0  0  0  0  0  0  0  0  0
   -4.8047   11.9294  -18.9716 F   0  0  0  0  0  0  0  0  0  0  0  0
   -4.0643   10.0029  -19.8021 F   0  0  0  0  0  0  0  0  0  0  0  0
   -7.1439   11.6515  -20.5261 F   0  0  0  0  0  0  0  0  0  0  0  0
   -6.3835    9.5874  -21.1125 F   0  0  0  0  0  0  0  0  0  0  0  0
  1  2  1  0
  2  3  1  0
  3  4  1  0
  4  5  1  0
  5  6  1  0
  5  7  1  0
  5  8  1  0
  8  9  2  0
  8 10  2  0
  8 11  1  0
  4 12  1  0
  4 13  1  0
  3 14  1  0
  3 15  1  0
  2 16  1  0
  2 17  1  0
  1 18  1  0
 18 19  1  0
 19 20  1  0
 20 21  1  0
 20 22  1  0
 20 23  1  0
 19 24  1  0
 19 25  1  0
 18 26  1  0
 18 27  1  0
  1 28  1  0
  1 29  1  0
M  END
$$$$
