
     RDKit          3D

 29 28  0  0  0  0  0  0  0  0999 V2000
  -11.5689   10.1936   -5.5148 C   0  0  0  0  0  0  0  0  0  0  0  0
  -11.5958    9.2020   -6.6612 C   0  0  0  0  0  0  0  0  0  0  0  0
  -11.1244    9.7061   -7.9637 C   0  0  0  0  0  0  0  0  0  0  0  0
  -11.1559    8.8432   -9.1600 C   0  0  0  0  0  0  0  0  0  0  0  0
  -10.8364    9.4675  -10.4725 C   0  0  0  0  0  0  0  0  0  0  0  0
  -11.8193   10.2123  -11.0622 F   0  0  0  0  0  0  0  0  0  0  0  0
   -9.6758   10.2200  -10.2858 F   0  0  0  0  0  0  0  0  0  0  0  0
  -10.4704    8.1608  -11.6613 S   0  0  0  0  0  0  0  0  0  0  0  0
  -10.1014    8.7332  -12.9896 O   0  0  0  0  0  0  0  0  0  0  0  0
   -9.4164    7.3017  -11.0567 O   0  0  0  0  0  0  0  0  0  0  0  0
  -11.8478    7.2185  -11.9064 O   0  0  0  0  0  0  0  0  0  0  0  0
  -12.2789    8.0370   -9.2730 F   0  0  0  0  0  0  0  0  0  0  0  0
  -10.1103    7.8968   -8.9554 F   0  0  0  0  0  0  0  0  0  0  0  0
   -9.8006   10.1484   -7.7822 F   0  0  0  0  0  0  0  0  0  0  0  0
  -11.8014   10.8990   -8.2998 F   0  0  0  0  0  0  0  0  0  0  0  0
  -12.9405    8.8366   -6.8336 F   0  0  0  0  0  0  0  0  0  0  0  0
  -10.9540    8.0703   -6.1910 F   0  0  0  0  0  0  0  0  0  0  0  0
  -12.5812    9.7268   -4.5104 C   0  0  0  0  0  0  0  0  0  0  0  0
  -12.8992   10.6943   -3.4407 C   0  0  0  0  0  0  0  0  0  0  0  0
  -13.9920   10.3487   -2.4899 C   0  0  0  0  0  0  0  0  0  0  0  0
  -13.8792    9.0771   -1.9638 F   0  0  0  0  0  0  0  0  0  0  0  0
  -15.1859   10.2898   -3.2574 F   0  0  0  0  0  0  0  0  0  0  0  0
  -14.2579   11.2906   -1.5344 F   0  0  0  0  0  0  0  0  0  0  0  0
  -11.7368   10.9001   -2.7106 F   0  0  0  0  0  0  0  0  0  0  0  0
  -13.2076   11.9280   -4.0201 F   0  0  0  0  0  0  0  0  0  0  0  0
  -13.7651    9.4320   -5.1770 F   0  0  0  0  0  0  0  0  0  0  0  0
  -12.1478    8.5360   -3.9397 F   0  0  0  0  0  0  0  0  0  0  0  0
  -11.8877   11.4692   -5.9451 F   0  0  0  0  0  0  0  0  0  0  0  0
  -10.3132   10.1562   -4.9554 F   0  0  0  0  0  0  0  0  0  0  0  0
  1  2  1  0
  2  3  1  0
  3  4  1  0
  4  5  1  0
  5  6  1  0
  5  7  1  0
  5  8  1  0
  8  9  2  0
  8 10  2  0
  8 11  1  0
  4 12  1  0
  4 13  1  0
  3 14  1  0
  3 15  1  0
  2 16  1  0
  2 17  1  0
  1 18  1  0
 18 19  1  0
 19 20  1  0
 20 21  1  0
 20 22  1  0
 20 23  1  0
 19 24  1  0
 19 25  1  0
 18 26  1  0
 18 27  1  0
  1 28  1  0
  1 29  1  0
M  END
$$$$
