
     RDKit          3D

 29 28  0  0  0  0  0  0  0  0999 V2000
    2.7911    2.1446  -14.2196 C   0  0  0  0  0  0  0  0  0  0  0  0
    1.5347    2.8806  -14.6413 C   0  0  0  0  0  0  0  0  0  0  0  0
    0.2582    2.2735  -14.2233 C   0  0  0  0  0  0  0  0  0  0  0  0
   -1.0249    2.9341  -14.5304 C   0  0  0  0  0  0  0  0  0  0  0  0
   -2.2333    2.0748  -14.6554 C   0  0  0  0  0  0  0  0  0  0  0  0
   -2.2279    1.1352  -15.6481 F   0  0  0  0  0  0  0  0  0  0  0  0
   -2.4383    1.4881  -13.4057 F   0  0  0  0  0  0  0  0  0  0  0  0
   -3.6547    3.1244  -15.0201 S   0  0  0  0  0  0  0  0  0  0  0  0
   -3.8655    4.1343  -13.9413 O   0  0  0  0  0  0  0  0  0  0  0  0
   -3.4291    3.7139  -16.3678 O   0  0  0  0  0  0  0  0  0  0  0  0
   -5.0521    2.1816  -15.0800 O   0  0  0  0  0  0  0  0  0  0  0  0
   -0.9789    3.8515  -15.5696 F   0  0  0  0  0  0  0  0  0  0  0  0
   -1.2923    3.7568  -13.3979 F   0  0  0  0  0  0  0  0  0  0  0  0
    0.3263    2.0836  -12.8303 F   0  0  0  0  0  0  0  0  0  0  0  0
    0.1650    0.9502  -14.7076 F   0  0  0  0  0  0  0  0  0  0  0  0
    1.5361    2.8887  -16.0453 F   0  0  0  0  0  0  0  0  0  0  0  0
    1.7252    4.1954  -14.2555 F   0  0  0  0  0  0  0  0  0  0  0  0
    3.9443    3.0717  -14.4691 C   0  0  0  0  0  0  0  0  0  0  0  0
    5.2789    2.4401  -14.4335 C   0  0  0  0  0  0  0  0  0  0  0  0
    6.4676    3.3083  -14.6588 C   0  0  0  0  0  0  0  0  0  0  0  0
    6.5799    3.7576  -15.9596 F   0  0  0  0  0  0  0  0  0  0  0  0
    7.6074    2.4772  -14.4911 F   0  0  0  0  0  0  0  0  0  0  0  0
    6.6472    4.3066  -13.7412 F   0  0  0  0  0  0  0  0  0  0  0  0
    5.4148    1.8301  -13.1942 F   0  0  0  0  0  0  0  0  0  0  0  0
    5.3179    1.4058  -15.3725 F   0  0  0  0  0  0  0  0  0  0  0  0
    3.7857    3.6506  -15.7231 F   0  0  0  0  0  0  0  0  0  0  0  0
    3.9039    4.1136  -13.5503 F   0  0  0  0  0  0  0  0  0  0  0  0
    2.9596    0.9793  -14.9461 F   0  0  0  0  0  0  0  0  0  0  0  0
    2.6934    1.8821  -12.8733 F   0  0  0  0  0  0  0  0  0  0  0  0
  1  2  1  0
  2  3  1  0
  3  4  1  0
  4  5  1  0
  5  6  1  0
  5  7  1  0
  5  8  1  0
  8  9  2  0
  8 10  2  0
  8 11  1  0
  4 12  1  0
  4 13  1  0
  3 14  1  0
  3 15  1  0
  2 16  1  0
  2 17  1  0
  1 18  1  0
 18 19  1  0
 19 20  1  0
 20 21  1  0
 20 22  1  0
 20 23  1  0
 19 24  1  0
 19 25  1  0
 18 26  1  0
 18 27  1  0
  1 28  1  0
  1 29  1  0
M  END
$$$$
