
     RDKit          3D

 29 28  0  0  0  0  0  0  0  0999 V2000
  -11.6512    9.1912  -11.6579 C   0  0  0  0  0  0  0  0  0  0  0  0
  -12.9535    8.6124  -11.1412 C   0  0  0  0  0  0  0  0  0  0  0  0
  -12.9076    8.0185   -9.7929 C   0  0  0  0  0  0  0  0  0  0  0  0
  -14.1529    7.6889   -9.0736 C   0  0  0  0  0  0  0  0  0  0  0  0
  -14.0355    7.2119   -7.6689 C   0  0  0  0  0  0  0  0  0  0  0  0
  -13.5250    5.9582   -7.4789 F   0  0  0  0  0  0  0  0  0  0  0  0
  -13.2894    8.1706   -6.9817 F   0  0  0  0  0  0  0  0  0  0  0  0
  -15.6835    7.1558   -6.9369 S   0  0  0  0  0  0  0  0  0  0  0  0
  -15.6345    6.6097   -5.5486 O   0  0  0  0  0  0  0  0  0  0  0  0
  -16.2505    8.5285   -7.0296 O   0  0  0  0  0  0  0  0  0  0  0  0
  -16.6635    6.1148   -7.8319 O   0  0  0  0  0  0  0  0  0  0  0  0
  -15.0444    6.8930   -9.7776 F   0  0  0  0  0  0  0  0  0  0  0  0
  -14.8526    8.9259   -8.9690 F   0  0  0  0  0  0  0  0  0  0  0  0
  -12.1554    8.8891   -8.9822 F   0  0  0  0  0  0  0  0  0  0  0  0
  -12.1162    6.8489   -9.8010 F   0  0  0  0  0  0  0  0  0  0  0  0
  -13.3024    7.5786  -12.0249 F   0  0  0  0  0  0  0  0  0  0  0  0
  -13.9014    9.6031  -11.3254 F   0  0  0  0  0  0  0  0  0  0  0  0
  -11.9826    9.9774  -12.8923 C   0  0  0  0  0  0  0  0  0  0  0  0
  -10.8726   10.7804  -13.4442 C   0  0  0  0  0  0  0  0  0  0  0  0
  -11.1439   11.6083  -14.6519 C   0  0  0  0  0  0  0  0  0  0  0  0
  -12.2961   12.3627  -14.5520 F   0  0  0  0  0  0  0  0  0  0  0  0
  -11.4288   10.6982  -15.7047 F   0  0  0  0  0  0  0  0  0  0  0  0
  -10.0811   12.3323  -15.1177 F   0  0  0  0  0  0  0  0  0  0  0  0
  -10.4272   11.6201  -12.4327 F   0  0  0  0  0  0  0  0  0  0  0  0
   -9.7996    9.9339  -13.7354 F   0  0  0  0  0  0  0  0  0  0  0  0
  -12.3969    9.0947  -13.8833 F   0  0  0  0  0  0  0  0  0  0  0  0
  -13.0659   10.8080  -12.6316 F   0  0  0  0  0  0  0  0  0  0  0  0
  -10.7439    8.1932  -11.9661 F   0  0  0  0  0  0  0  0  0  0  0  0
  -11.1537   10.0356  -10.6932 F   0  0  0  0  0  0  0  0  0  0  0  0
  1  2  1  0
  2  3  1  0
  3  4  1  0
  4  5  1  0
  5  6  1  0
  5  7  1  0
  5  8  1  0
  8  9  2  0
  8 10  2  0
  8 11  1  0
  4 12  1  0
  4 13  1  0
  3 14  1  0
  3 15  1  0
  2 16  1  0
  2 17  1  0
  1 18  1  0
 18 19  1  0
 19 20  1  0
 20 21  1  0
 20 22  1  0
 20 23  1  0
 19 24  1  0
 19 25  1  0
 18 26  1  0
 18 27  1  0
  1 28  1  0
  1 29  1  0
M  END
$$$$
