
     RDKit          3D

  4  3  0  0  0  0  0  0  0  0999 V2000
   13.5892   -6.5127   -4.5673 C   0  0  0  0  0  0  0  0  0  0  0  0
   14.0656   -7.5004   -5.6141 C   0  0  0  0  0  0  0  0  0  0  0  0
   13.7847   -6.9147   -7.2732 Cl  0  0  0  0  0  0  0  0  0  0  0  0
   13.6241   -7.3137   -2.9695 Cl  0  0  0  0  0  0  0  0  0  0  0  0
  1  2  1  0
  2  3  1  0
  1  4  1  0
M  END
$$$$
