
     RDKit          3D

  4  3  0  0  0  0  0  0  0  0999 V2000
    9.2851   -5.6784    9.1764 C   0  0  0  0  0  0  0  0  0  0  0  0
    8.9451   -4.7883   10.3555 C   0  0  0  0  0  0  0  0  0  0  0  0
    7.4041   -3.9236   10.1272 Cl  0  0  0  0  0  0  0  0  0  0  0  0
   11.0327   -6.0511    9.2281 Cl  0  0  0  0  0  0  0  0  0  0  0  0
  1  2  1  0
  2  3  1  0
  1  4  1  0
M  END
$$$$
