
     RDKit          3D

  4  3  0  0  0  0  0  0  0  0999 V2000
    6.1805  -11.6100    8.2939 C   0  0  0  0  0  0  0  0  0  0  0  0
    7.0215  -11.8885    7.0637 C   0  0  0  0  0  0  0  0  0  0  0  0
    6.6013  -13.4398    6.2948 Cl  0  0  0  0  0  0  0  0  0  0  0  0
    6.9190  -10.2541    9.1950 Cl  0  0  0  0  0  0  0  0  0  0  0  0
  1  2  1  0
  2  3  1  0
  1  4  1  0
M  END
$$$$
