
     RDKit          3D

  4  3  0  0  0  0  0  0  0  0999 V2000
   -3.1260  -10.2284  -18.2486 C   0  0  0  0  0  0  0  0  0  0  0  0
   -3.7757   -9.0873  -19.0062 C   0  0  0  0  0  0  0  0  0  0  0  0
   -4.0940   -7.6783  -17.9631 Cl  0  0  0  0  0  0  0  0  0  0  0  0
   -2.3687  -11.3382  -19.4280 Cl  0  0  0  0  0  0  0  0  0  0  0  0
  1  2  1  0
  2  3  1  0
  1  4  1  0
M  END
$$$$
