
     RDKit          3D

 29 28  0  0  0  0  0  0  0  0999 V2000
    0.3697    2.5377  -11.4966 C   0  0  0  0  0  0  0  0  0  0  0  0
    0.3328    3.9571  -12.1675 C   0  0  0  0  0  0  0  0  0  0  0  0
   -0.1262    4.9361  -11.1645 C   0  0  0  0  0  0  0  0  0  0  0  0
   -0.3262    6.3513  -11.5428 C   0  0  0  0  0  0  0  0  0  0  0  0
   -0.7109    7.2136  -10.3953 C   0  0  0  0  0  0  0  0  0  0  0  0
   -1.8164    6.7725   -9.7534 F   0  0  0  0  0  0  0  0  0  0  0  0
    0.3970    7.2890   -9.5352 F   0  0  0  0  0  0  0  0  0  0  0  0
   -1.0227    8.8964  -10.8921 S   0  0  0  0  0  0  0  0  0  0  0  0
   -2.4930    9.1868  -10.9467 O   0  0  0  0  0  0  0  0  0  0  0  0
   -0.4464    9.1063  -12.2673 O   0  0  0  0  0  0  0  0  0  0  0  0
   -0.1910    9.8895   -9.8352 O   0  0  0  0  0  0  0  0  0  0  0  0
    0.8354    6.8636  -12.1654 F   0  0  0  0  0  0  0  0  0  0  0  0
   -1.2960    6.4767  -12.5612 F   0  0  0  0  0  0  0  0  0  0  0  0
    0.7169    4.9323  -10.0261 F   0  0  0  0  0  0  0  0  0  0  0  0
   -1.3248    4.4020  -10.6283 F   0  0  0  0  0  0  0  0  0  0  0  0
    1.5666    4.1609  -12.7131 F   0  0  0  0  0  0  0  0  0  0  0  0
   -0.5638    3.7509  -13.2277 F   0  0  0  0  0  0  0  0  0  0  0  0
    0.7642    1.6230  -12.5952 C   0  0  0  0  0  0  0  0  0  0  0  0
    0.9684    0.1940  -12.2816 C   0  0  0  0  0  0  0  0  0  0  0  0
    1.2878   -0.7335  -13.3965 C   0  0  0  0  0  0  0  0  0  0  0  0
    1.5368   -2.0258  -13.0681 F   0  0  0  0  0  0  0  0  0  0  0  0
    2.4734   -0.2531  -13.9782 F   0  0  0  0  0  0  0  0  0  0  0  0
    0.3326   -0.6301  -14.4064 F   0  0  0  0  0  0  0  0  0  0  0  0
   -0.1001   -0.3418  -11.5627 F   0  0  0  0  0  0  0  0  0  0  0  0
    2.0783    0.1419  -11.4145 F   0  0  0  0  0  0  0  0  0  0  0  0
   -0.2625    1.6962  -13.5529 F   0  0  0  0  0  0  0  0  0  0  0  0
    1.9134    2.0910  -13.2224 F   0  0  0  0  0  0  0  0  0  0  0  0
   -0.9415    2.2801  -11.0993 F   0  0  0  0  0  0  0  0  0  0  0  0
    1.2305    2.6493  -10.4540 F   0  0  0  0  0  0  0  0  0  0  0  0
  1  2  1  0
  2  3  1  0
  3  4  1  0
  4  5  1  0
  5  6  1  0
  5  7  1  0
  5  8  1  0
  8  9  2  0
  8 10  2  0
  8 11  1  0
  4 12  1  0
  4 13  1  0
  3 14  1  0
  3 15  1  0
  2 16  1  0
  2 17  1  0
  1 18  1  0
 18 19  1  0
 19 20  1  0
 20 21  1  0
 20 22  1  0
 20 23  1  0
 19 24  1  0
 19 25  1  0
 18 26  1  0
 18 27  1  0
  1 28  1  0
  1 29  1  0
M  END
$$$$
