
     RDKit          3D

 29 28  0  0  0  0  0  0  0  0999 V2000
    0.3700  -17.9114    0.1675 C   0  0  0  0  0  0  0  0  0  0  0  0
   -0.1427  -19.3415   -0.2301 C   0  0  0  0  0  0  0  0  0  0  0  0
   -0.0911  -20.2051    0.9644 C   0  0  0  0  0  0  0  0  0  0  0  0
   -1.0029  -21.3625    1.0860 C   0  0  0  0  0  0  0  0  0  0  0  0
   -0.7933  -22.1422    2.3336 C   0  0  0  0  0  0  0  0  0  0  0  0
    0.3441  -22.8733    2.3120 F   0  0  0  0  0  0  0  0  0  0  0  0
   -0.8100  -21.2345    3.4054 F   0  0  0  0  0  0  0  0  0  0  0  0
   -2.1385  -23.2645    2.6606 S   0  0  0  0  0  0  0  0  0  0  0  0
   -1.8225  -24.1769    3.8081 O   0  0  0  0  0  0  0  0  0  0  0  0
   -2.3702  -24.1072    1.4344 O   0  0  0  0  0  0  0  0  0  0  0  0
   -3.5090  -22.3398    2.9086 O   0  0  0  0  0  0  0  0  0  0  0  0
   -2.3495  -20.9399    0.9997 F   0  0  0  0  0  0  0  0  0  0  0  0
   -0.8847  -22.2261   -0.0246 F   0  0  0  0  0  0  0  0  0  0  0  0
   -0.2365  -19.4435    2.1501 F   0  0  0  0  0  0  0  0  0  0  0  0
    1.2559  -20.6339    1.0692 F   0  0  0  0  0  0  0  0  0  0  0  0
   -1.3621  -19.1676   -0.8170 F   0  0  0  0  0  0  0  0  0  0  0  0
    0.7608  -19.6998   -1.2428 F   0  0  0  0  0  0  0  0  0  0  0  0
    0.3683  -17.1537   -1.1073 C   0  0  0  0  0  0  0  0  0  0  0  0
    0.6539  -15.7050   -1.0650 C   0  0  0  0  0  0  0  0  0  0  0  0
    0.7720  -14.9722   -2.3512 C   0  0  0  0  0  0  0  0  0  0  0  0
    1.8256  -15.2896   -3.1444 F   0  0  0  0  0  0  0  0  0  0  0  0
    0.9419  -13.6180   -2.0162 F   0  0  0  0  0  0  0  0  0  0  0  0
   -0.4336  -15.0140   -3.0494 F   0  0  0  0  0  0  0  0  0  0  0  0
    1.7804  -15.4162   -0.2949 F   0  0  0  0  0  0  0  0  0  0  0  0
   -0.4335  -15.1147   -0.3901 F   0  0  0  0  0  0  0  0  0  0  0  0
    1.3518  -17.7482   -1.9171 F   0  0  0  0  0  0  0  0  0  0  0  0
   -0.8402  -17.3314   -1.7716 F   0  0  0  0  0  0  0  0  0  0  0  0
    1.6760  -18.0968    0.6187 F   0  0  0  0  0  0  0  0  0  0  0  0
   -0.4730  -17.4784    1.1381 F   0  0  0  0  0  0  0  0  0  0  0  0
  1  2  1  0
  2  3  1  0
  3  4  1  0
  4  5  1  0
  5  6  1  0
  5  7  1  0
  5  8  1  0
  8  9  2  0
  8 10  2  0
  8 11  1  0
  4 12  1  0
  4 13  1  0
  3 14  1  0
  3 15  1  0
  2 16  1  0
  2 17  1  0
  1 18  1  0
 18 19  1  0
 19 20  1  0
 20 21  1  0
 20 22  1  0
 20 23  1  0
 19 24  1  0
 19 25  1  0
 18 26  1  0
 18 27  1  0
  1 28  1  0
  1 29  1  0
M  END
$$$$
