
     RDKit          3D

 29 28  0  0  0  0  0  0  0  0999 V2000
   12.9800    2.4519    2.5057 C   0  0  0  0  0  0  0  0  0  0  0  0
   13.8616    3.6961    2.8810 C   0  0  0  0  0  0  0  0  0  0  0  0
   14.9774    3.7848    1.9205 C   0  0  0  0  0  0  0  0  0  0  0  0
   16.2167    4.5047    2.2837 C   0  0  0  0  0  0  0  0  0  0  0  0
   17.1676    4.6386    1.1497 C   0  0  0  0  0  0  0  0  0  0  0  0
   17.5934    3.4454    0.6767 F   0  0  0  0  0  0  0  0  0  0  0  0
   16.5314    5.3977    0.1538 F   0  0  0  0  0  0  0  0  0  0  0  0
   18.6146    5.5803    1.5916 S   0  0  0  0  0  0  0  0  0  0  0  0
   19.0891    5.2378    2.9724 O   0  0  0  0  0  0  0  0  0  0  0  0
   18.2635    7.0442    1.5602 O   0  0  0  0  0  0  0  0  0  0  0  0
   19.7656    5.3080    0.4100 O   0  0  0  0  0  0  0  0  0  0  0  0
   15.9089    5.7802    2.8106 F   0  0  0  0  0  0  0  0  0  0  0  0
   16.8729    3.8800    3.3664 F   0  0  0  0  0  0  0  0  0  0  0  0
   14.5423    4.3183    0.6824 F   0  0  0  0  0  0  0  0  0  0  0  0
   15.2796    2.4477    1.5598 F   0  0  0  0  0  0  0  0  0  0  0  0
   13.0161    4.7648    2.9491 F   0  0  0  0  0  0  0  0  0  0  0  0
   14.2511    3.3874    4.1937 F   0  0  0  0  0  0  0  0  0  0  0  0
   11.9264    2.4210    3.5489 C   0  0  0  0  0  0  0  0  0  0  0  0
   10.9067    1.3541    3.4874 C   0  0  0  0  0  0  0  0  0  0  0  0
    9.8397    1.3387    4.5202 C   0  0  0  0  0  0  0  0  0  0  0  0
   10.2148    1.0280    5.7862 F   0  0  0  0  0  0  0  0  0  0  0  0
    8.9351    0.3350    4.1338 F   0  0  0  0  0  0  0  0  0  0  0  0
    9.0984    2.5182    4.4739 F   0  0  0  0  0  0  0  0  0  0  0  0
   11.4808    0.0839    3.4364 F   0  0  0  0  0  0  0  0  0  0  0  0
   10.2413    1.5238    2.2566 F   0  0  0  0  0  0  0  0  0  0  0  0
   12.5963    2.2860    4.7776 F   0  0  0  0  0  0  0  0  0  0  0  0
   11.2640    3.6423    3.6008 F   0  0  0  0  0  0  0  0  0  0  0  0
   13.8213    1.3478    2.6344 F   0  0  0  0  0  0  0  0  0  0  0  0
   12.5720    2.6654    1.2297 F   0  0  0  0  0  0  0  0  0  0  0  0
  1  2  1  0
  2  3  1  0
  3  4  1  0
  4  5  1  0
  5  6  1  0
  5  7  1  0
  5  8  1  0
  8  9  2  0
  8 10  2  0
  8 11  1  0
  4 12  1  0
  4 13  1  0
  3 14  1  0
  3 15  1  0
  2 16  1  0
  2 17  1  0
  1 18  1  0
 18 19  1  0
 19 20  1  0
 20 21  1  0
 20 22  1  0
 20 23  1  0
 19 24  1  0
 19 25  1  0
 18 26  1  0
 18 27  1  0
  1 28  1  0
  1 29  1  0
M  END
$$$$
