
     RDKit          3D

 29 28  0  0  0  0  0  0  0  0999 V2000
    1.1010    7.9052   -7.3048 C   0  0  0  0  0  0  0  0  0  0  0  0
    1.9814    7.3446   -8.4782 C   0  0  0  0  0  0  0  0  0  0  0  0
    1.1241    7.1767   -9.6665 C   0  0  0  0  0  0  0  0  0  0  0  0
    1.7008    6.6891  -10.9375 C   0  0  0  0  0  0  0  0  0  0  0  0
    0.8476    6.9858  -12.1174 C   0  0  0  0  0  0  0  0  0  0  0  0
   -0.3826    6.4311  -12.0298 F   0  0  0  0  0  0  0  0  0  0  0  0
    0.7820    8.3827  -12.2493 F   0  0  0  0  0  0  0  0  0  0  0  0
    1.5793    6.4144  -13.6386 S   0  0  0  0  0  0  0  0  0  0  0  0
    0.5996    5.6234  -14.4531 O   0  0  0  0  0  0  0  0  0  0  0  0
    2.7472    5.5241  -13.3055 O   0  0  0  0  0  0  0  0  0  0  0  0
    2.1747    7.7558  -14.4392 O   0  0  0  0  0  0  0  0  0  0  0  0
    2.9951    7.2253  -11.1288 F   0  0  0  0  0  0  0  0  0  0  0  0
    1.9526    5.3009  -10.8861 F   0  0  0  0  0  0  0  0  0  0  0  0
    0.4282    8.3739   -9.9657 F   0  0  0  0  0  0  0  0  0  0  0  0
    0.0635    6.3300   -9.2572 F   0  0  0  0  0  0  0  0  0  0  0  0
    3.0494    8.1852   -8.5982 F   0  0  0  0  0  0  0  0  0  0  0  0
    2.4561    6.1417   -7.9323 F   0  0  0  0  0  0  0  0  0  0  0  0
    2.0190    7.9374   -6.1406 C   0  0  0  0  0  0  0  0  0  0  0  0
    1.4352    7.9238   -4.7838 C   0  0  0  0  0  0  0  0  0  0  0  0
    2.3572    7.9370   -3.6197 C   0  0  0  0  0  0  0  0  0  0  0  0
    3.3375    8.8746   -3.6233 F   0  0  0  0  0  0  0  0  0  0  0  0
    3.0169    6.6962   -3.6284 F   0  0  0  0  0  0  0  0  0  0  0  0
    1.6368    7.9448   -2.4265 F   0  0  0  0  0  0  0  0  0  0  0  0
    0.5338    6.8732   -4.6126 F   0  0  0  0  0  0  0  0  0  0  0  0
    0.6727    9.1043   -4.6777 F   0  0  0  0  0  0  0  0  0  0  0  0
    2.8348    6.7980   -6.2540 F   0  0  0  0  0  0  0  0  0  0  0  0
    2.8699    9.0335   -6.2283 F   0  0  0  0  0  0  0  0  0  0  0  0
    0.0994    6.9563   -7.1055 F   0  0  0  0  0  0  0  0  0  0  0  0
    0.6259    9.0979   -7.7429 F   0  0  0  0  0  0  0  0  0  0  0  0
  1  2  1  0
  2  3  1  0
  3  4  1  0
  4  5  1  0
  5  6  1  0
  5  7  1  0
  5  8  1  0
  8  9  2  0
  8 10  2  0
  8 11  1  0
  4 12  1  0
  4 13  1  0
  3 14  1  0
  3 15  1  0
  2 16  1  0
  2 17  1  0
  1 18  1  0
 18 19  1  0
 19 20  1  0
 20 21  1  0
 20 22  1  0
 20 23  1  0
 19 24  1  0
 19 25  1  0
 18 26  1  0
 18 27  1  0
  1 28  1  0
  1 29  1  0
M  END
$$$$
