
     RDKit          3D

 29 28  0  0  0  0  0  0  0  0999 V2000
    2.6342  -13.8421  -10.9750 C   0  0  0  0  0  0  0  0  0  0  0  0
    3.5948  -14.0827  -12.1938 C   0  0  0  0  0  0  0  0  0  0  0  0
    3.3903  -12.9973  -13.1712 C   0  0  0  0  0  0  0  0  0  0  0  0
    4.2035  -12.9436  -14.4049 C   0  0  0  0  0  0  0  0  0  0  0  0
    3.8620  -11.7917  -15.2793 C   0  0  0  0  0  0  0  0  0  0  0  0
    2.5676  -11.7941  -15.6709 F   0  0  0  0  0  0  0  0  0  0  0  0
    4.1937  -10.6193  -14.5804 F   0  0  0  0  0  0  0  0  0  0  0  0
    4.8615  -11.7460  -16.7541 S   0  0  0  0  0  0  0  0  0  0  0  0
    4.4784  -10.5972  -17.6388 O   0  0  0  0  0  0  0  0  0  0  0  0
    4.6483  -13.0254  -17.5190 O   0  0  0  0  0  0  0  0  0  0  0  0
    6.4611  -11.7034  -16.2700 O   0  0  0  0  0  0  0  0  0  0  0  0
    5.5808  -12.9179  -14.0861 F   0  0  0  0  0  0  0  0  0  0  0  0
    4.0866  -14.1387  -15.1473 F   0  0  0  0  0  0  0  0  0  0  0  0
    3.5009  -11.7275  -12.5528 F   0  0  0  0  0  0  0  0  0  0  0  0
    2.0116  -13.0313  -13.4987 F   0  0  0  0  0  0  0  0  0  0  0  0
    4.8498  -14.2232  -11.6772 F   0  0  0  0  0  0  0  0  0  0  0  0
    3.1826  -15.3483  -12.6396 F   0  0  0  0  0  0  0  0  0  0  0  0
    2.9220  -14.9677  -10.0535 C   0  0  0  0  0  0  0  0  0  0  0  0
    2.1464  -15.0668   -8.8003 C   0  0  0  0  0  0  0  0  0  0  0  0
    2.4051  -16.2196   -7.9006 C   0  0  0  0  0  0  0  0  0  0  0  0
    1.7047  -16.2619   -6.7397 F   0  0  0  0  0  0  0  0  0  0  0  0
    3.7567  -16.1291   -7.5269 F   0  0  0  0  0  0  0  0  0  0  0  0
    2.3137  -17.4188   -8.6052 F   0  0  0  0  0  0  0  0  0  0  0  0
    0.7723  -14.9929   -9.0282 F   0  0  0  0  0  0  0  0  0  0  0  0
    2.4728  -13.9190   -8.0502 F   0  0  0  0  0  0  0  0  0  0  0  0
    2.6819  -16.1438  -10.7855 F   0  0  0  0  0  0  0  0  0  0  0  0
    4.2723  -14.9861   -9.7225 F   0  0  0  0  0  0  0  0  0  0  0  0
    1.3439  -13.9561  -11.4905 F   0  0  0  0  0  0  0  0  0  0  0  0
    2.9205  -12.5945  -10.5257 F   0  0  0  0  0  0  0  0  0  0  0  0
  1  2  1  0
  2  3  1  0
  3  4  1  0
  4  5  1  0
  5  6  1  0
  5  7  1  0
  5  8  1  0
  8  9  2  0
  8 10  2  0
  8 11  1  0
  4 12  1  0
  4 13  1  0
  3 14  1  0
  3 15  1  0
  2 16  1  0
  2 17  1  0
  1 18  1  0
 18 19  1  0
 19 20  1  0
 20 21  1  0
 20 22  1  0
 20 23  1  0
 19 24  1  0
 19 25  1  0
 18 26  1  0
 18 27  1  0
  1 28  1  0
  1 29  1  0
M  END
$$$$
