
     RDKit          3D

 29 28  0  0  0  0  0  0  0  0999 V2000
    4.1186    5.9672  -10.1802 C   0  0  0  0  0  0  0  0  0  0  0  0
    5.3390    5.8760  -11.1643 C   0  0  0  0  0  0  0  0  0  0  0  0
    5.9576    4.5450  -11.0194 C   0  0  0  0  0  0  0  0  0  0  0  0
    6.9244    4.0598  -12.0272 C   0  0  0  0  0  0  0  0  0  0  0  0
    7.4979    2.7302  -11.6933 C   0  0  0  0  0  0  0  0  0  0  0  0
    8.0438    2.6885  -10.4567 F   0  0  0  0  0  0  0  0  0  0  0  0
    6.4746    1.7800  -11.8443 F   0  0  0  0  0  0  0  0  0  0  0  0
    8.7615    2.2326  -12.8473 S   0  0  0  0  0  0  0  0  0  0  0  0
    9.9601    3.1302  -12.7662 O   0  0  0  0  0  0  0  0  0  0  0  0
    8.1992    2.3169  -14.2416 O   0  0  0  0  0  0  0  0  0  0  0  0
    9.1144    0.6281  -12.5375 O   0  0  0  0  0  0  0  0  0  0  0  0
    6.3239    4.0205  -13.3068 F   0  0  0  0  0  0  0  0  0  0  0  0
    7.9757    4.9834  -12.2142 F   0  0  0  0  0  0  0  0  0  0  0  0
    4.9714    3.5375  -10.8803 F   0  0  0  0  0  0  0  0  0  0  0  0
    6.5514    4.5366   -9.7323 F   0  0  0  0  0  0  0  0  0  0  0  0
    4.8668    6.2088  -12.4004 F   0  0  0  0  0  0  0  0  0  0  0  0
    6.1433    6.9391  -10.7244 F   0  0  0  0  0  0  0  0  0  0  0  0
    3.5611    7.3217  -10.4119 C   0  0  0  0  0  0  0  0  0  0  0  0
    2.4790    7.7980   -9.5264 C   0  0  0  0  0  0  0  0  0  0  0  0
    1.8554    9.1132   -9.8202 C   0  0  0  0  0  0  0  0  0  0  0  0
    0.8221    9.4937   -9.0281 F   0  0  0  0  0  0  0  0  0  0  0  0
    1.3243    9.0138  -11.1175 F   0  0  0  0  0  0  0  0  0  0  0  0
    2.8298   10.1056   -9.9135 F   0  0  0  0  0  0  0  0  0  0  0  0
    2.8583    7.7867   -8.1841 F   0  0  0  0  0  0  0  0  0  0  0  0
    1.4406    6.8517   -9.6392 F   0  0  0  0  0  0  0  0  0  0  0  0
    4.6366    8.2165  -10.2729 F   0  0  0  0  0  0  0  0  0  0  0  0
    3.1226    7.4438  -11.7256 F   0  0  0  0  0  0  0  0  0  0  0  0
    4.6656    5.8811   -8.9007 F   0  0  0  0  0  0  0  0  0  0  0  0
    3.3203    4.9153  -10.4906 F   0  0  0  0  0  0  0  0  0  0  0  0
  1  2  1  0
  2  3  1  0
  3  4  1  0
  4  5  1  0
  5  6  1  0
  5  7  1  0
  5  8  1  0
  8  9  2  0
  8 10  2  0
  8 11  1  0
  4 12  1  0
  4 13  1  0
  3 14  1  0
  3 15  1  0
  2 16  1  0
  2 17  1  0
  1 18  1  0
 18 19  1  0
 19 20  1  0
 20 21  1  0
 20 22  1  0
 20 23  1  0
 19 24  1  0
 19 25  1  0
 18 26  1  0
 18 27  1  0
  1 28  1  0
  1 29  1  0
M  END
$$$$
