
     RDKit          3D

 29 28  0  0  0  0  0  0  0  0999 V2000
   -2.2942    4.6852  -12.1664 C   0  0  0  0  0  0  0  0  0  0  0  0
   -0.9975    3.9525  -11.6686 C   0  0  0  0  0  0  0  0  0  0  0  0
   -0.7967    2.7464  -12.4933 C   0  0  0  0  0  0  0  0  0  0  0  0
    0.3012    1.8062  -12.1822 C   0  0  0  0  0  0  0  0  0  0  0  0
    0.4315    0.7109  -13.1780 C   0  0  0  0  0  0  0  0  0  0  0  0
   -0.6187   -0.1409  -13.1634 F   0  0  0  0  0  0  0  0  0  0  0  0
    0.6034    1.3060  -14.4386 F   0  0  0  0  0  0  0  0  0  0  0  0
    1.9044   -0.2595  -12.9230 S   0  0  0  0  0  0  0  0  0  0  0  0
    3.1341    0.5987  -12.9398 O   0  0  0  0  0  0  0  0  0  0  0  0
    2.0144   -1.2677  -14.0360 O   0  0  0  0  0  0  0  0  0  0  0  0
    1.7044   -1.1011  -11.4924 O   0  0  0  0  0  0  0  0  0  0  0  0
    1.5266    2.5018  -12.0643 F   0  0  0  0  0  0  0  0  0  0  0  0
    0.1459    1.2458  -10.8957 F   0  0  0  0  0  0  0  0  0  0  0  0
   -0.6719    3.0816  -13.8640 F   0  0  0  0  0  0  0  0  0  0  0  0
   -2.0390    2.0639  -12.4828 F   0  0  0  0  0  0  0  0  0  0  0  0
    0.0012    4.8821  -11.6766 F   0  0  0  0  0  0  0  0  0  0  0  0
   -1.3128    3.6899  -10.3262 F   0  0  0  0  0  0  0  0  0  0  0  0
   -2.2119    6.0331  -11.5535 C   0  0  0  0  0  0  0  0  0  0  0  0
   -3.3378    6.9677  -11.7556 C   0  0  0  0  0  0  0  0  0  0  0  0
   -3.1909    8.3635  -11.2704 C   0  0  0  0  0  0  0  0  0  0  0  0
   -2.0833    9.0384  -11.6676 F   0  0  0  0  0  0  0  0  0  0  0  0
   -3.1068    8.2845   -9.8698 F   0  0  0  0  0  0  0  0  0  0  0  0
   -4.3554    9.0899  -11.5132 F   0  0  0  0  0  0  0  0  0  0  0  0
   -4.5367    6.4580  -11.2573 F   0  0  0  0  0  0  0  0  0  0  0  0
   -3.5138    7.0672  -13.1505 F   0  0  0  0  0  0  0  0  0  0  0  0
   -2.0865    5.8261  -10.1686 F   0  0  0  0  0  0  0  0  0  0  0  0
   -1.0464    6.6752  -11.9566 F   0  0  0  0  0  0  0  0  0  0  0  0
   -3.3586    3.9693  -11.6204 F   0  0  0  0  0  0  0  0  0  0  0  0
   -2.2501    4.6249  -13.5209 F   0  0  0  0  0  0  0  0  0  0  0  0
  1  2  1  0
  2  3  1  0
  3  4  1  0
  4  5  1  0
  5  6  1  0
  5  7  1  0
  5  8  1  0
  8  9  2  0
  8 10  2  0
  8 11  1  0
  4 12  1  0
  4 13  1  0
  3 14  1  0
  3 15  1  0
  2 16  1  0
  2 17  1  0
  1 18  1  0
 18 19  1  0
 19 20  1  0
 20 21  1  0
 20 22  1  0
 20 23  1  0
 19 24  1  0
 19 25  1  0
 18 26  1  0
 18 27  1  0
  1 28  1  0
  1 29  1  0
M  END
$$$$
