
     RDKit          3D

 29 28  0  0  0  0  0  0  0  0999 V2000
  -13.0737    7.3896  -11.3531 C   0  0  0  0  0  0  0  0  0  0  0  0
  -14.1268    8.2268  -10.5431 C   0  0  0  0  0  0  0  0  0  0  0  0
  -15.1476    7.3046  -10.0113 C   0  0  0  0  0  0  0  0  0  0  0  0
  -16.2494    7.8188   -9.1702 C   0  0  0  0  0  0  0  0  0  0  0  0
  -17.4160    6.9002   -9.1109 C   0  0  0  0  0  0  0  0  0  0  0  0
  -17.8378    6.5061  -10.3338 F   0  0  0  0  0  0  0  0  0  0  0  0
  -17.0513    5.8075   -8.3073 F   0  0  0  0  0  0  0  0  0  0  0  0
  -18.8110    7.6359   -8.2809 S   0  0  0  0  0  0  0  0  0  0  0  0
  -18.4248    8.1752   -6.9360 O   0  0  0  0  0  0  0  0  0  0  0  0
  -19.8649    6.5787   -8.0832 O   0  0  0  0  0  0  0  0  0  0  0  0
  -19.4422    8.7982   -9.3034 O   0  0  0  0  0  0  0  0  0  0  0  0
  -15.7840    8.0954   -7.8640 F   0  0  0  0  0  0  0  0  0  0  0  0
  -16.6818    9.0878   -9.6128 F   0  0  0  0  0  0  0  0  0  0  0  0
  -14.5481    6.2401   -9.2942 F   0  0  0  0  0  0  0  0  0  0  0  0
  -15.6729    6.6236  -11.1381 F   0  0  0  0  0  0  0  0  0  0  0  0
  -13.4226    8.9623   -9.6349 F   0  0  0  0  0  0  0  0  0  0  0  0
  -14.6021    9.1147  -11.5210 F   0  0  0  0  0  0  0  0  0  0  0  0
  -12.3407    8.3993  -12.1546 C   0  0  0  0  0  0  0  0  0  0  0  0
  -11.3518    7.9280  -13.1456 C   0  0  0  0  0  0  0  0  0  0  0  0
  -10.5421    8.9405  -13.8697 C   0  0  0  0  0  0  0  0  0  0  0  0
   -9.5823    8.4747  -14.7073 F   0  0  0  0  0  0  0  0  0  0  0  0
   -9.8628    9.6767  -12.8840 F   0  0  0  0  0  0  0  0  0  0  0  0
  -11.3700    9.8705  -14.4962 F   0  0  0  0  0  0  0  0  0  0  0  0
  -11.9224    7.0725  -14.0880 F   0  0  0  0  0  0  0  0  0  0  0  0
  -10.4261    7.1444  -12.4275 F   0  0  0  0  0  0  0  0  0  0  0  0
  -13.3182    9.1268  -12.8559 F   0  0  0  0  0  0  0  0  0  0  0  0
  -11.7057    9.3101  -11.3178 F   0  0  0  0  0  0  0  0  0  0  0  0
  -13.8210    6.5590  -12.1869 F   0  0  0  0  0  0  0  0  0  0  0  0
  -12.3575    6.7078  -10.4244 F   0  0  0  0  0  0  0  0  0  0  0  0
  1  2  1  0
  2  3  1  0
  3  4  1  0
  4  5  1  0
  5  6  1  0
  5  7  1  0
  5  8  1  0
  8  9  2  0
  8 10  2  0
  8 11  1  0
  4 12  1  0
  4 13  1  0
  3 14  1  0
  3 15  1  0
  2 16  1  0
  2 17  1  0
  1 18  1  0
 18 19  1  0
 19 20  1  0
 20 21  1  0
 20 22  1  0
 20 23  1  0
 19 24  1  0
 19 25  1  0
 18 26  1  0
 18 27  1  0
  1 28  1  0
  1 29  1  0
M  END
$$$$
