
     RDKit          3D

  5  4  0  0  0  0  0  0  0  0999 V2000
   -4.7277    0.0410   -6.4222 C   0  0  0  0  0  0  0  0  0  0  0  0
   -5.2834   -0.4408   -7.6840 C   0  0  0  0  0  0  0  0  0  0  0  0
   -5.3366    0.2214   -8.7301 O   0  0  0  0  0  0  0  0  0  0  0  0
   -5.8004   -1.7243   -7.7274 O   0  0  0  0  0  0  0  0  0  0  0  0
   -4.3759    1.3698   -6.4251 F   0  0  0  0  0  0  0  0  0  0  0  0
  1  2  1  0
  2  3  2  0
  2  4  1  0
  1  5  1  0
M  END
$$$$
