
     RDKit          3D

  5  4  0  0  0  0  0  0  0  0999 V2000
    3.0867    4.2760   -7.0742 C   0  0  0  0  0  0  0  0  0  0  0  0
    2.2567    4.0739   -5.8897 C   0  0  0  0  0  0  0  0  0  0  0  0
    2.5881    3.4029   -4.9020 O   0  0  0  0  0  0  0  0  0  0  0  0
    1.0029    4.6602   -5.8573 O   0  0  0  0  0  0  0  0  0  0  0  0
    4.2825    3.5985   -7.0543 F   0  0  0  0  0  0  0  0  0  0  0  0
  1  2  1  0
  2  3  2  0
  2  4  1  0
  1  5  1  0
M  END
$$$$
