
     RDKit          3D

  5  4  0  0  0  0  0  0  0  0999 V2000
   -3.9704  -13.2643   -4.8647 C   0  0  0  0  0  0  0  0  0  0  0  0
   -2.9625  -13.6971   -3.9004 C   0  0  0  0  0  0  0  0  0  0  0  0
   -1.8821  -13.1231   -3.7033 O   0  0  0  0  0  0  0  0  0  0  0  0
   -3.2140  -14.8344   -3.1520 O   0  0  0  0  0  0  0  0  0  0  0  0
   -3.6399  -12.1272   -5.5626 F   0  0  0  0  0  0  0  0  0  0  0  0
  1  2  1  0
  2  3  2  0
  2  4  1  0
  1  5  1  0
M  END
$$$$
