
     RDKit          3D

  5  4  0  0  0  0  0  0  0  0999 V2000
   -1.1817    1.5022   -9.7981 C   0  0  0  0  0  0  0  0  0  0  0  0
   -1.3157    1.6200   -8.3486 C   0  0  0  0  0  0  0  0  0  0  0  0
   -1.2617    0.6694   -7.5555 O   0  0  0  0  0  0  0  0  0  0  0  0
   -1.5282    2.8765   -7.8077 O   0  0  0  0  0  0  0  0  0  0  0  0
   -0.0499    0.8423  -10.2140 F   0  0  0  0  0  0  0  0  0  0  0  0
  1  2  1  0
  2  3  2  0
  2  4  1  0
  1  5  1  0
M  END
$$$$
