
     RDKit          3D

  5  4  0  0  0  0  0  0  0  0999 V2000
  -15.9404    0.3328  -14.5697 C   0  0  0  0  0  0  0  0  0  0  0  0
  -17.3968    0.2238  -14.5645 C   0  0  0  0  0  0  0  0  0  0  0  0
  -18.0242   -0.8442  -14.5314 O   0  0  0  0  0  0  0  0  0  0  0  0
  -18.1436    1.3887  -14.6090 O   0  0  0  0  0  0  0  0  0  0  0  0
  -15.4642    1.6124  -14.4109 F   0  0  0  0  0  0  0  0  0  0  0  0
  1  2  1  0
  2  3  2  0
  2  4  1  0
  1  5  1  0
M  END
$$$$
