
     RDKit          3D

  5  4  0  0  0  0  0  0  0  0999 V2000
   -2.1026  -14.3262   -3.9123 C   0  0  0  0  0  0  0  0  0  0  0  0
   -3.3775  -13.6294   -4.0603 C   0  0  0  0  0  0  0  0  0  0  0  0
   -4.3344  -14.0437   -4.7299 O   0  0  0  0  0  0  0  0  0  0  0  0
   -3.5403  -12.4127   -3.4201 O   0  0  0  0  0  0  0  0  0  0  0  0
   -1.0879  -13.5546   -3.3980 F   0  0  0  0  0  0  0  0  0  0  0  0
  1  2  1  0
  2  3  2  0
  2  4  1  0
  1  5  1  0
M  END
$$$$
