
     RDKit          3D

  5  4  0  0  0  0  0  0  0  0999 V2000
    0.5158   11.9732  -10.1332 C   0  0  0  0  0  0  0  0  0  0  0  0
    0.0461   12.5545   -8.8784 C   0  0  0  0  0  0  0  0  0  0  0  0
   -0.3018   11.9009   -7.8847 O   0  0  0  0  0  0  0  0  0  0  0  0
   -0.0305   13.9333   -8.7803 O   0  0  0  0  0  0  0  0  0  0  0  0
    0.4681   10.6003  -10.1782 F   0  0  0  0  0  0  0  0  0  0  0  0
  1  2  1  0
  2  3  2  0
  2  4  1  0
  1  5  1  0
M  END
$$$$
