
     RDKit          3D

  5  4  0  0  0  0  0  0  0  0999 V2000
    1.4960    2.2538   -5.0048 C   0  0  0  0  0  0  0  0  0  0  0  0
    0.4065    2.6521   -5.8921 C   0  0  0  0  0  0  0  0  0  0  0  0
   -0.1012    3.7821   -5.9227 O   0  0  0  0  0  0  0  0  0  0  0  0
   -0.1131    1.7075   -6.7606 O   0  0  0  0  0  0  0  0  0  0  0  0
    1.9030    3.2310   -4.1280 F   0  0  0  0  0  0  0  0  0  0  0  0
  1  2  1  0
  2  3  2  0
  2  4  1  0
  1  5  1  0
M  END
$$$$
