
     RDKit          3D

 25 24  0  0  0  0  0  0  0  0999 V2000
    9.0583   -4.9095   -7.4982 C   0  0  0  0  0  0  0  0  0  0  0  0
    7.8259   -4.5735   -7.6534 O   0  0  0  0  0  0  0  0  0  0  0  0
    9.4263   -6.1276   -6.7677 C   0  0  0  0  0  0  0  0  0  0  0  0
    8.3461   -7.0290   -6.3333 C   0  0  0  0  0  0  0  0  0  0  0  0
    8.7153   -8.3727   -5.7944 C   0  0  0  0  0  0  0  0  0  0  0  0
    7.4352   -9.0838   -5.4504 C   0  0  0  0  0  0  0  0  0  0  0  0
    7.4939  -10.5499   -5.3090 C   0  0  0  0  0  0  0  0  0  0  0  0
    6.3607  -11.2403   -4.6347 C   0  0  0  0  0  0  0  0  0  0  0  0
    6.3211  -12.6827   -5.1874 C   0  0  0  0  0  0  0  0  0  0  0  0
    7.3609  -13.4283   -4.6917 F   0  0  0  0  0  0  0  0  0  0  0  0
    5.1383  -13.2879   -4.8200 F   0  0  0  0  0  0  0  0  0  0  0  0
    6.3324  -12.6225   -6.5736 F   0  0  0  0  0  0  0  0  0  0  0  0
    5.1095  -10.7372   -4.9535 F   0  0  0  0  0  0  0  0  0  0  0  0
    6.5139  -11.3390   -3.2797 F   0  0  0  0  0  0  0  0  0  0  0  0
    7.7353  -11.2016   -6.5151 F   0  0  0  0  0  0  0  0  0  0  0  0
    8.6357  -10.8367   -4.5360 F   0  0  0  0  0  0  0  0  0  0  0  0
    6.8419   -8.5473   -4.3172 F   0  0  0  0  0  0  0  0  0  0  0  0
    6.5437   -8.7873   -6.4897 F   0  0  0  0  0  0  0  0  0  0  0  0
    9.6210   -8.3897   -4.7844 F   0  0  0  0  0  0  0  0  0  0  0  0
    9.2842   -9.0683   -6.8785 F   0  0  0  0  0  0  0  0  0  0  0  0
    7.5105   -6.3292   -5.4711 F   0  0  0  0  0  0  0  0  0  0  0  0
    7.5427   -7.2790   -7.4569 F   0  0  0  0  0  0  0  0  0  0  0  0
   10.3149   -5.8116   -5.7383 F   0  0  0  0  0  0  0  0  0  0  0  0
   10.2208   -6.8890   -7.6498 F   0  0  0  0  0  0  0  0  0  0  0  0
    9.9608   -4.0251   -8.0790 O   0  0  0  0  0  0  0  0  0  0  0  0
  1  2  2  0
  1  3  1  0
  3  4  1  0
  4  5  1  0
  5  6  1  0
  6  7  1  0
  7  8  1  0
  8  9  1  0
  9 10  1  0
  9 11  1  0
  9 12  1  0
  8 13  1  0
  8 14  1  0
  7 15  1  0
  7 16  1  0
  6 17  1  0
  6 18  1  0
  5 19  1  0
  5 20  1  0
  4 21  1  0
  4 22  1  0
  3 23  1  0
  3 24  1  0
  1 25  1  0
M  END
$$$$
