
     RDKit          3D

 25 24  0  0  0  0  0  0  0  0999 V2000
    7.4909  -16.6514   -4.1979 C   0  0  0  0  0  0  0  0  0  0  0  0
    6.5983  -16.5476   -3.2769 O   0  0  0  0  0  0  0  0  0  0  0  0
    8.0079  -15.4658   -4.8906 C   0  0  0  0  0  0  0  0  0  0  0  0
    7.4152  -14.1580   -4.5638 C   0  0  0  0  0  0  0  0  0  0  0  0
    8.0547  -12.9285   -5.1220 C   0  0  0  0  0  0  0  0  0  0  0  0
    7.3068  -11.7456   -4.5705 C   0  0  0  0  0  0  0  0  0  0  0  0
    7.6725  -10.4144   -5.0873 C   0  0  0  0  0  0  0  0  0  0  0  0
    6.5940   -9.4034   -5.2605 C   0  0  0  0  0  0  0  0  0  0  0  0
    7.2439   -8.1603   -5.9084 C   0  0  0  0  0  0  0  0  0  0  0  0
    7.9912   -7.4624   -4.9933 F   0  0  0  0  0  0  0  0  0  0  0  0
    8.0726   -8.5533   -6.9374 F   0  0  0  0  0  0  0  0  0  0  0  0
    6.2412   -7.3826   -6.4697 F   0  0  0  0  0  0  0  0  0  0  0  0
    6.0695   -8.9135   -4.0750 F   0  0  0  0  0  0  0  0  0  0  0  0
    5.5961   -9.8125   -6.1008 F   0  0  0  0  0  0  0  0  0  0  0  0
    8.7057   -9.8192   -4.3691 F   0  0  0  0  0  0  0  0  0  0  0  0
    8.2232  -10.6146   -6.3679 F   0  0  0  0  0  0  0  0  0  0  0  0
    5.9343  -11.9103   -4.6864 F   0  0  0  0  0  0  0  0  0  0  0  0
    7.5478  -11.7524   -3.1904 F   0  0  0  0  0  0  0  0  0  0  0  0
    8.2012  -12.8836   -6.4700 F   0  0  0  0  0  0  0  0  0  0  0  0
    9.3447  -12.8880   -4.5590 F   0  0  0  0  0  0  0  0  0  0  0  0
    6.0539  -14.2122   -4.8378 F   0  0  0  0  0  0  0  0  0  0  0  0
    7.4758  -14.0165   -3.1685 F   0  0  0  0  0  0  0  0  0  0  0  0
    8.0631  -15.7072   -6.2645 F   0  0  0  0  0  0  0  0  0  0  0  0
    9.3679  -15.3636   -4.5316 F   0  0  0  0  0  0  0  0  0  0  0  0
    7.8928  -17.9590   -4.4482 O   0  0  0  0  0  0  0  0  0  0  0  0
  1  2  2  0
  1  3  1  0
  3  4  1  0
  4  5  1  0
  5  6  1  0
  6  7  1  0
  7  8  1  0
  8  9  1  0
  9 10  1  0
  9 11  1  0
  9 12  1  0
  8 13  1  0
  8 14  1  0
  7 15  1  0
  7 16  1  0
  6 17  1  0
  6 18  1  0
  5 19  1  0
  5 20  1  0
  4 21  1  0
  4 22  1  0
  3 23  1  0
  3 24  1  0
  1 25  1  0
M  END
$$$$
