
     RDKit          3D

 25 24  0  0  0  0  0  0  0  0999 V2000
   17.4461   -3.3668    0.4027 C   0  0  0  0  0  0  0  0  0  0  0  0
   17.8412   -2.8623   -0.7131 O   0  0  0  0  0  0  0  0  0  0  0  0
   16.0306   -3.6730    0.6380 C   0  0  0  0  0  0  0  0  0  0  0  0
   15.1030   -3.5847   -0.5022 C   0  0  0  0  0  0  0  0  0  0  0  0
   13.7003   -4.0642   -0.3160 C   0  0  0  0  0  0  0  0  0  0  0  0
   13.1635   -4.4159   -1.6765 C   0  0  0  0  0  0  0  0  0  0  0  0
   12.6000   -5.7666   -1.8519 C   0  0  0  0  0  0  0  0  0  0  0  0
   12.1490   -6.1726   -3.2109 C   0  0  0  0  0  0  0  0  0  0  0  0
   11.7058   -7.6497   -3.1142 C   0  0  0  0  0  0  0  0  0  0  0  0
   11.1315   -8.0690   -4.2878 F   0  0  0  0  0  0  0  0  0  0  0  0
   12.8007   -8.4466   -2.8570 F   0  0  0  0  0  0  0  0  0  0  0  0
   10.8460   -7.7805   -2.0331 F   0  0  0  0  0  0  0  0  0  0  0  0
   13.1526   -6.1978   -4.1661 F   0  0  0  0  0  0  0  0  0  0  0  0
   11.0694   -5.4633   -3.6592 F   0  0  0  0  0  0  0  0  0  0  0  0
   13.4314   -6.7688   -1.3598 F   0  0  0  0  0  0  0  0  0  0  0  0
   11.4596   -5.8397   -1.0288 F   0  0  0  0  0  0  0  0  0  0  0  0
   12.2363   -3.4825   -2.1162 F   0  0  0  0  0  0  0  0  0  0  0  0
   14.2439   -4.2826   -2.5583 F   0  0  0  0  0  0  0  0  0  0  0  0
   12.8732   -3.2514    0.3882 F   0  0  0  0  0  0  0  0  0  0  0  0
   13.8087   -5.2723    0.3993 F   0  0  0  0  0  0  0  0  0  0  0  0
   15.1527   -2.2918   -1.0094 F   0  0  0  0  0  0  0  0  0  0  0  0
   15.6400   -4.3744   -1.5310 F   0  0  0  0  0  0  0  0  0  0  0  0
   15.5766   -2.9782    1.7606 F   0  0  0  0  0  0  0  0  0  0  0  0
   15.9848   -5.0185    1.0578 F   0  0  0  0  0  0  0  0  0  0  0  0
   18.4706   -3.5808    1.3185 O   0  0  0  0  0  0  0  0  0  0  0  0
  1  2  2  0
  1  3  1  0
  3  4  1  0
  4  5  1  0
  5  6  1  0
  6  7  1  0
  7  8  1  0
  8  9  1  0
  9 10  1  0
  9 11  1  0
  9 12  1  0
  8 13  1  0
  8 14  1  0
  7 15  1  0
  7 16  1  0
  6 17  1  0
  6 18  1  0
  5 19  1  0
  5 20  1  0
  4 21  1  0
  4 22  1  0
  3 23  1  0
  3 24  1  0
  1 25  1  0
M  END
$$$$
