
     RDKit          3D

 25 24  0  0  0  0  0  0  0  0999 V2000
   10.5088   -5.5094   -7.9124 C   0  0  0  0  0  0  0  0  0  0  0  0
    9.6371   -5.2989   -8.8352 O   0  0  0  0  0  0  0  0  0  0  0  0
   10.1206   -6.0820   -6.6184 C   0  0  0  0  0  0  0  0  0  0  0  0
    8.9297   -6.9468   -6.5719 C   0  0  0  0  0  0  0  0  0  0  0  0
    8.8812   -8.0349   -5.5492 C   0  0  0  0  0  0  0  0  0  0  0  0
    7.5637   -8.7425   -5.7111 C   0  0  0  0  0  0  0  0  0  0  0  0
    7.3684   -9.9892   -4.9492 C   0  0  0  0  0  0  0  0  0  0  0  0
    6.1165  -10.7632   -5.1704 C   0  0  0  0  0  0  0  0  0  0  0  0
    6.4686  -12.2539   -4.9671 C   0  0  0  0  0  0  0  0  0  0  0  0
    5.3630  -12.9735   -4.5889 F   0  0  0  0  0  0  0  0  0  0  0  0
    6.9486  -12.7823   -6.1463 F   0  0  0  0  0  0  0  0  0  0  0  0
    7.4944  -12.3402   -4.0368 F   0  0  0  0  0  0  0  0  0  0  0  0
    5.6350  -10.7187   -6.4690 F   0  0  0  0  0  0  0  0  0  0  0  0
    5.1276  -10.4637   -4.2750 F   0  0  0  0  0  0  0  0  0  0  0  0
    8.4413  -10.8687   -5.0646 F   0  0  0  0  0  0  0  0  0  0  0  0
    7.3676   -9.6349   -3.5862 F   0  0  0  0  0  0  0  0  0  0  0  0
    6.4948   -7.8938   -5.4639 F   0  0  0  0  0  0  0  0  0  0  0  0
    7.4619   -9.0507   -7.0739 F   0  0  0  0  0  0  0  0  0  0  0  0
    9.1348   -7.6699   -4.2673 F   0  0  0  0  0  0  0  0  0  0  0  0
    9.8804   -8.9515   -5.9289 F   0  0  0  0  0  0  0  0  0  0  0  0
    7.8007   -6.1375   -6.5311 F   0  0  0  0  0  0  0  0  0  0  0  0
    8.8411   -7.5915   -7.8157 F   0  0  0  0  0  0  0  0  0  0  0  0
   10.1017   -5.0814   -5.6450 F   0  0  0  0  0  0  0  0  0  0  0  0
   11.1960   -6.8991   -6.2125 F   0  0  0  0  0  0  0  0  0  0  0  0
   11.8042   -5.1497   -8.2682 O   0  0  0  0  0  0  0  0  0  0  0  0
  1  2  2  0
  1  3  1  0
  3  4  1  0
  4  5  1  0
  5  6  1  0
  6  7  1  0
  7  8  1  0
  8  9  1  0
  9 10  1  0
  9 11  1  0
  9 12  1  0
  8 13  1  0
  8 14  1  0
  7 15  1  0
  7 16  1  0
  6 17  1  0
  6 18  1  0
  5 19  1  0
  5 20  1  0
  4 21  1  0
  4 22  1  0
  3 23  1  0
  3 24  1  0
  1 25  1  0
M  END
$$$$
