
     RDKit          3D

 25 24  0  0  0  0  0  0  0  0999 V2000
   10.7922   -6.3001   -8.1056 C   0  0  0  0  0  0  0  0  0  0  0  0
   10.8885   -7.2147   -9.0056 O   0  0  0  0  0  0  0  0  0  0  0  0
    9.6298   -6.2337   -7.2127 C   0  0  0  0  0  0  0  0  0  0  0  0
    8.5867   -7.2633   -7.3543 C   0  0  0  0  0  0  0  0  0  0  0  0
    7.7061   -7.5487   -6.1816 C   0  0  0  0  0  0  0  0  0  0  0  0
    7.0264   -8.8651   -6.4425 C   0  0  0  0  0  0  0  0  0  0  0  0
    7.0095   -9.8463   -5.3426 C   0  0  0  0  0  0  0  0  0  0  0  0
    6.2678  -11.1208   -5.5446 C   0  0  0  0  0  0  0  0  0  0  0  0
    6.6858  -12.0698   -4.3992 C   0  0  0  0  0  0  0  0  0  0  0  0
    8.0384  -12.3005   -4.4202 F   0  0  0  0  0  0  0  0  0  0  0  0
    6.3603  -11.5036   -3.1853 F   0  0  0  0  0  0  0  0  0  0  0  0
    5.9517  -13.2420   -4.5098 F   0  0  0  0  0  0  0  0  0  0  0  0
    6.6233  -11.8178   -6.6883 F   0  0  0  0  0  0  0  0  0  0  0  0
    4.9104  -10.9774   -5.4652 F   0  0  0  0  0  0  0  0  0  0  0  0
    8.2832  -10.1615   -4.8778 F   0  0  0  0  0  0  0  0  0  0  0  0
    6.3966   -9.2128   -4.2443 F   0  0  0  0  0  0  0  0  0  0  0  0
    5.7309   -8.6877   -6.9053 F   0  0  0  0  0  0  0  0  0  0  0  0
    7.7110   -9.4399   -7.5213 F   0  0  0  0  0  0  0  0  0  0  0  0
    6.8421   -6.5662   -5.8224 F   0  0  0  0  0  0  0  0  0  0  0  0
    8.5804   -7.7544   -5.0972 F   0  0  0  0  0  0  0  0  0  0  0  0
    7.8565   -6.9930   -8.5054 F   0  0  0  0  0  0  0  0  0  0  0  0
    9.2391   -8.4725   -7.6416 F   0  0  0  0  0  0  0  0  0  0  0  0
    9.1132   -4.9368   -7.2044 F   0  0  0  0  0  0  0  0  0  0  0  0
   10.1319   -6.3834   -5.9033 F   0  0  0  0  0  0  0  0  0  0  0  0
   11.8703   -5.4221   -8.0768 O   0  0  0  0  0  0  0  0  0  0  0  0
  1  2  2  0
  1  3  1  0
  3  4  1  0
  4  5  1  0
  5  6  1  0
  6  7  1  0
  7  8  1  0
  8  9  1  0
  9 10  1  0
  9 11  1  0
  9 12  1  0
  8 13  1  0
  8 14  1  0
  7 15  1  0
  7 16  1  0
  6 17  1  0
  6 18  1  0
  5 19  1  0
  5 20  1  0
  4 21  1  0
  4 22  1  0
  3 23  1  0
  3 24  1  0
  1 25  1  0
M  END
$$$$
