
     RDKit          3D

 25 24  0  0  0  0  0  0  0  0999 V2000
   10.3144   -5.6378   -8.6286 C   0  0  0  0  0  0  0  0  0  0  0  0
    9.2822   -5.2067   -9.2645 O   0  0  0  0  0  0  0  0  0  0  0  0
   10.1897   -6.2283   -7.2912 C   0  0  0  0  0  0  0  0  0  0  0  0
    8.8733   -6.7449   -6.8811 C   0  0  0  0  0  0  0  0  0  0  0  0
    8.8131   -7.7191   -5.7499 C   0  0  0  0  0  0  0  0  0  0  0  0
    7.4986   -8.4432   -5.8526 C   0  0  0  0  0  0  0  0  0  0  0  0
    7.4286   -9.8004   -5.2818 C   0  0  0  0  0  0  0  0  0  0  0  0
    6.2189  -10.6218   -5.5597 C   0  0  0  0  0  0  0  0  0  0  0  0
    6.3630  -11.9243   -4.7410 C   0  0  0  0  0  0  0  0  0  0  0  0
    5.3543  -12.8062   -5.0377 F   0  0  0  0  0  0  0  0  0  0  0  0
    7.5674  -12.5265   -5.0355 F   0  0  0  0  0  0  0  0  0  0  0  0
    6.3929  -11.5952   -3.3934 F   0  0  0  0  0  0  0  0  0  0  0  0
    6.1166  -11.0708   -6.8667 F   0  0  0  0  0  0  0  0  0  0  0  0
    5.0550  -10.0276   -5.1576 F   0  0  0  0  0  0  0  0  0  0  0  0
    8.5478  -10.5724   -5.5804 F   0  0  0  0  0  0  0  0  0  0  0  0
    7.4830   -9.6544   -3.8822 F   0  0  0  0  0  0  0  0  0  0  0  0
    6.4570   -7.6857   -5.3373 F   0  0  0  0  0  0  0  0  0  0  0  0
    7.2220   -8.5379   -7.2227 F   0  0  0  0  0  0  0  0  0  0  0  0
    9.0500   -7.2202   -4.5107 F   0  0  0  0  0  0  0  0  0  0  0  0
    9.8181   -8.6681   -6.0183 F   0  0  0  0  0  0  0  0  0  0  0  0
    8.0181   -5.6661   -6.6906 F   0  0  0  0  0  0  0  0  0  0  0  0
    8.3320   -7.4164   -7.9887 F   0  0  0  0  0  0  0  0  0  0  0  0
   10.7560   -5.3748   -6.3426 F   0  0  0  0  0  0  0  0  0  0  0  0
   11.0545   -7.3422   -7.2720 F   0  0  0  0  0  0  0  0  0  0  0  0
   11.5086   -5.4882   -9.3255 O   0  0  0  0  0  0  0  0  0  0  0  0
  1  2  2  0
  1  3  1  0
  3  4  1  0
  4  5  1  0
  5  6  1  0
  6  7  1  0
  7  8  1  0
  8  9  1  0
  9 10  1  0
  9 11  1  0
  9 12  1  0
  8 13  1  0
  8 14  1  0
  7 15  1  0
  7 16  1  0
  6 17  1  0
  6 18  1  0
  5 19  1  0
  5 20  1  0
  4 21  1  0
  4 22  1  0
  3 23  1  0
  3 24  1  0
  1 25  1  0
M  END
$$$$
