
     RDKit          3D

 29 28  0  0  0  0  0  0  0  0999 V2000
    2.6187   12.3523   -3.3331 C   0  0  0  0  0  0  0  0  0  0  0  0
    1.4899   12.8019   -4.1545 C   0  0  0  0  0  0  0  0  0  0  0  0
    0.2974   13.3311   -3.4203 C   0  0  0  0  0  0  0  0  0  0  0  0
   -0.8386   13.8189   -4.2324 C   0  0  0  0  0  0  0  0  0  0  0  0
   -1.9619   14.4846   -3.4519 C   0  0  0  0  0  0  0  0  0  0  0  0
   -1.3270   15.3807   -2.5799 F   0  0  0  0  0  0  0  0  0  0  0  0
   -2.5344   13.5134   -2.6805 F   0  0  0  0  0  0  0  0  0  0  0  0
   -3.1327   15.3889   -4.3547 S   0  0  0  0  0  0  0  0  0  0  0  0
   -4.3468   15.7582   -3.5581 O   0  0  0  0  0  0  0  0  0  0  0  0
   -2.5992   16.5958   -5.0803 O   0  0  0  0  0  0  0  0  0  0  0  0
   -3.7039   14.3611   -5.6139 O   0  0  0  0  0  0  0  0  0  0  0  0
   -1.4326   12.7719   -4.9706 F   0  0  0  0  0  0  0  0  0  0  0  0
   -0.3884   14.7310   -5.1577 F   0  0  0  0  0  0  0  0  0  0  0  0
    0.7101   14.4063   -2.6187 F   0  0  0  0  0  0  0  0  0  0  0  0
   -0.0969   12.3441   -2.5034 F   0  0  0  0  0  0  0  0  0  0  0  0
    1.8805   13.8298   -5.0503 F   0  0  0  0  0  0  0  0  0  0  0  0
    1.0733   11.7770   -5.0127 F   0  0  0  0  0  0  0  0  0  0  0  0
    3.7667   11.6816   -4.0096 C   0  0  0  0  0  0  0  0  0  0  0  0
    4.9390   11.2546   -3.2093 C   0  0  0  0  0  0  0  0  0  0  0  0
    5.7127   10.1526   -3.9882 C   0  0  0  0  0  0  0  0  0  0  0  0
    6.2136   10.7299   -5.1406 F   0  0  0  0  0  0  0  0  0  0  0  0
    4.8406    9.1155   -4.2558 F   0  0  0  0  0  0  0  0  0  0  0  0
    6.7329    9.6661   -3.2217 F   0  0  0  0  0  0  0  0  0  0  0  0
    4.5910   10.7085   -2.0040 F   0  0  0  0  0  0  0  0  0  0  0  0
    5.8782   12.2651   -2.9958 F   0  0  0  0  0  0  0  0  0  0  0  0
    4.1315   12.4768   -5.0923 F   0  0  0  0  0  0  0  0  0  0  0  0
    3.2626   10.5081   -4.6117 F   0  0  0  0  0  0  0  0  0  0  0  0
    2.1135   11.2937   -2.5089 F   0  0  0  0  0  0  0  0  0  0  0  0
    2.9966   13.3231   -2.4297 F   0  0  0  0  0  0  0  0  0  0  0  0
  1  2  1  0
  2  3  1  0
  3  4  1  0
  4  5  1  0
  5  6  1  0
  5  7  1  0
  5  8  1  0
  8  9  2  0
  8 10  2  0
  8 11  1  0
  4 12  1  0
  4 13  1  0
  3 14  1  0
  3 15  1  0
  2 16  1  0
  2 17  1  0
  1 18  1  0
 18 19  1  0
 19 20  1  0
 20 21  1  0
 20 22  1  0
 20 23  1  0
 19 24  1  0
 19 25  1  0
 18 26  1  0
 18 27  1  0
  1 28  1  0
  1 29  1  0
M  END
$$$$
