
     RDKit          3D

 29 28  0  0  0  0  0  0  0  0999 V2000
    0.5176  -10.2131   11.0658 C   0  0  0  0  0  0  0  0  0  0  0  0
   -0.7302  -10.8479   10.6286 C   0  0  0  0  0  0  0  0  0  0  0  0
   -0.6407  -12.2840   10.2149 C   0  0  0  0  0  0  0  0  0  0  0  0
   -1.9081  -12.9829    9.9098 C   0  0  0  0  0  0  0  0  0  0  0  0
   -1.7758  -14.4619    9.5793 C   0  0  0  0  0  0  0  0  0  0  0  0
   -1.2353  -15.0522   10.7308 F   0  0  0  0  0  0  0  0  0  0  0  0
   -0.8317  -14.5628    8.5972 F   0  0  0  0  0  0  0  0  0  0  0  0
   -3.2280  -15.3252    9.1929 S   0  0  0  0  0  0  0  0  0  0  0  0
   -3.0554  -16.8136    9.1881 O   0  0  0  0  0  0  0  0  0  0  0  0
   -4.4415  -14.9445    9.9992 O   0  0  0  0  0  0  0  0  0  0  0  0
   -3.6503  -14.9060    7.5761 O   0  0  0  0  0  0  0  0  0  0  0  0
   -2.5751  -12.3885    8.8162 F   0  0  0  0  0  0  0  0  0  0  0  0
   -2.7637  -12.8792   10.9812 F   0  0  0  0  0  0  0  0  0  0  0  0
   -0.0212  -13.0059   11.2464 F   0  0  0  0  0  0  0  0  0  0  0  0
    0.2681  -12.3524    9.1473 F   0  0  0  0  0  0  0  0  0  0  0  0
   -1.7181  -10.7987   11.6451 F   0  0  0  0  0  0  0  0  0  0  0  0
   -1.3117  -10.1139    9.5878 F   0  0  0  0  0  0  0  0  0  0  0  0
    0.4525   -8.8346   11.6322 C   0  0  0  0  0  0  0  0  0  0  0  0
    1.7081   -8.1235   11.9716 C   0  0  0  0  0  0  0  0  0  0  0  0
    1.3588   -6.7230   12.5515 C   0  0  0  0  0  0  0  0  0  0  0  0
    0.5498   -6.0806   11.6322 F   0  0  0  0  0  0  0  0  0  0  0  0
    2.5378   -6.0411   12.7814 F   0  0  0  0  0  0  0  0  0  0  0  0
    0.7046   -6.8591   13.7425 F   0  0  0  0  0  0  0  0  0  0  0  0
    2.5082   -7.9062   10.8832 F   0  0  0  0  0  0  0  0  0  0  0  0
    2.4593   -8.7449   12.9708 F   0  0  0  0  0  0  0  0  0  0  0  0
   -0.4377   -8.8679   12.7019 F   0  0  0  0  0  0  0  0  0  0  0  0
   -0.2025   -8.0264   10.6774 F   0  0  0  0  0  0  0  0  0  0  0  0
    1.2915   -9.9986    9.8782 F   0  0  0  0  0  0  0  0  0  0  0  0
    1.2868  -11.0832   11.8091 F   0  0  0  0  0  0  0  0  0  0  0  0
  1  2  1  0
  2  3  1  0
  3  4  1  0
  4  5  1  0
  5  6  1  0
  5  7  1  0
  5  8  1  0
  8  9  2  0
  8 10  2  0
  8 11  1  0
  4 12  1  0
  4 13  1  0
  3 14  1  0
  3 15  1  0
  2 16  1  0
  2 17  1  0
  1 18  1  0
 18 19  1  0
 19 20  1  0
 20 21  1  0
 20 22  1  0
 20 23  1  0
 19 24  1  0
 19 25  1  0
 18 26  1  0
 18 27  1  0
  1 28  1  0
  1 29  1  0
M  END
$$$$
