
     RDKit          3D

 29 28  0  0  0  0  0  0  0  0999 V2000
   -6.0886   -9.0318    7.9485 C   0  0  0  0  0  0  0  0  0  0  0  0
   -6.3515  -10.2578    7.1877 C   0  0  0  0  0  0  0  0  0  0  0  0
   -6.8469  -11.4357    7.9678 C   0  0  0  0  0  0  0  0  0  0  0  0
   -7.3872  -12.5794    7.2009 C   0  0  0  0  0  0  0  0  0  0  0  0
   -8.0324  -13.6777    8.0326 C   0  0  0  0  0  0  0  0  0  0  0  0
   -9.0818  -13.0529    8.7216 F   0  0  0  0  0  0  0  0  0  0  0  0
   -7.1105  -14.0571    8.9665 F   0  0  0  0  0  0  0  0  0  0  0  0
   -8.7082  -15.0283    7.1825 S   0  0  0  0  0  0  0  0  0  0  0  0
   -7.7423  -15.6903    6.2476 O   0  0  0  0  0  0  0  0  0  0  0  0
   -9.3899  -16.0593    8.0427 O   0  0  0  0  0  0  0  0  0  0  0  0
   -9.9701  -14.4159    6.1822 O   0  0  0  0  0  0  0  0  0  0  0  0
   -6.3834  -13.2028    6.4277 F   0  0  0  0  0  0  0  0  0  0  0  0
   -8.3341  -12.1331    6.3094 F   0  0  0  0  0  0  0  0  0  0  0  0
   -7.8725  -11.0034    8.8222 F   0  0  0  0  0  0  0  0  0  0  0  0
   -5.8127  -11.8245    8.8336 F   0  0  0  0  0  0  0  0  0  0  0  0
   -7.3128  -10.0366    6.1684 F   0  0  0  0  0  0  0  0  0  0  0  0
   -5.2120  -10.6392    6.4692 F   0  0  0  0  0  0  0  0  0  0  0  0
   -5.3975   -7.9032    7.2600 C   0  0  0  0  0  0  0  0  0  0  0  0
   -5.0999   -6.6606    8.0113 C   0  0  0  0  0  0  0  0  0  0  0  0
   -4.4658   -5.6206    7.0439 C   0  0  0  0  0  0  0  0  0  0  0  0
   -3.1535   -5.9985    6.8268 F   0  0  0  0  0  0  0  0  0  0  0  0
   -4.5641   -4.3708    7.6237 F   0  0  0  0  0  0  0  0  0  0  0  0
   -5.1525   -5.5993    5.8636 F   0  0  0  0  0  0  0  0  0  0  0  0
   -4.1986   -6.8524    9.0226 F   0  0  0  0  0  0  0  0  0  0  0  0
   -6.2311   -6.0244    8.5257 F   0  0  0  0  0  0  0  0  0  0  0  0
   -6.0920   -7.6500    6.0804 F   0  0  0  0  0  0  0  0  0  0  0  0
   -4.1502   -8.3929    6.8148 F   0  0  0  0  0  0  0  0  0  0  0  0
   -5.1287   -9.3857    8.9528 F   0  0  0  0  0  0  0  0  0  0  0  0
   -7.1971   -8.6457    8.6720 F   0  0  0  0  0  0  0  0  0  0  0  0
  1  2  1  0
  2  3  1  0
  3  4  1  0
  4  5  1  0
  5  6  1  0
  5  7  1  0
  5  8  1  0
  8  9  2  0
  8 10  2  0
  8 11  1  0
  4 12  1  0
  4 13  1  0
  3 14  1  0
  3 15  1  0
  2 16  1  0
  2 17  1  0
  1 18  1  0
 18 19  1  0
 19 20  1  0
 20 21  1  0
 20 22  1  0
 20 23  1  0
 19 24  1  0
 19 25  1  0
 18 26  1  0
 18 27  1  0
  1 28  1  0
  1 29  1  0
M  END
$$$$
