
     RDKit          3D

 29 28  0  0  0  0  0  0  0  0999 V2000
    7.1373   -7.7805    8.7157 C   0  0  0  0  0  0  0  0  0  0  0  0
    6.5224   -8.7884    7.8456 C   0  0  0  0  0  0  0  0  0  0  0  0
    5.6885   -9.8339    8.5186 C   0  0  0  0  0  0  0  0  0  0  0  0
    4.9958  -10.8119    7.6515 C   0  0  0  0  0  0  0  0  0  0  0  0
    3.9995  -11.7199    8.3565 C   0  0  0  0  0  0  0  0  0  0  0  0
    3.0234  -10.8614    8.8826 F   0  0  0  0  0  0  0  0  0  0  0  0
    4.6563  -12.2766    9.4170 F   0  0  0  0  0  0  0  0  0  0  0  0
    3.1776  -12.9022    7.3920 S   0  0  0  0  0  0  0  0  0  0  0  0
    2.7724  -12.3951    6.0415 O   0  0  0  0  0  0  0  0  0  0  0  0
    3.8759  -14.2301    7.2615 O   0  0  0  0  0  0  0  0  0  0  0  0
    1.7050  -13.2805    8.2021 O   0  0  0  0  0  0  0  0  0  0  0  0
    5.9137  -11.6611    6.9955 F   0  0  0  0  0  0  0  0  0  0  0  0
    4.3126  -10.1488    6.6595 F   0  0  0  0  0  0  0  0  0  0  0  0
    4.6957   -9.1919    9.2743 F   0  0  0  0  0  0  0  0  0  0  0  0
    6.5024  -10.4620    9.4744 F   0  0  0  0  0  0  0  0  0  0  0  0
    5.6809   -8.1879    6.8745 F   0  0  0  0  0  0  0  0  0  0  0  0
    7.4993   -9.4220    7.0680 F   0  0  0  0  0  0  0  0  0  0  0  0
    8.2632   -6.9659    8.1736 C   0  0  0  0  0  0  0  0  0  0  0  0
    8.9534   -5.9943    9.0549 C   0  0  0  0  0  0  0  0  0  0  0  0
   10.0767   -5.2833    8.2471 C   0  0  0  0  0  0  0  0  0  0  0  0
   10.8937   -6.2644    7.7160 F   0  0  0  0  0  0  0  0  0  0  0  0
   10.7575   -4.4374    9.1008 F   0  0  0  0  0  0  0  0  0  0  0  0
    9.5299   -4.5314    7.2468 F   0  0  0  0  0  0  0  0  0  0  0  0
    9.5606   -6.5866   10.1285 F   0  0  0  0  0  0  0  0  0  0  0  0
    8.1337   -4.9601    9.5103 F   0  0  0  0  0  0  0  0  0  0  0  0
    7.8187   -6.3794    6.9919 F   0  0  0  0  0  0  0  0  0  0  0  0
    9.2581   -7.8711    7.7437 F   0  0  0  0  0  0  0  0  0  0  0  0
    7.7888   -8.5067    9.7661 F   0  0  0  0  0  0  0  0  0  0  0  0
    6.1797   -7.0368    9.3725 F   0  0  0  0  0  0  0  0  0  0  0  0
  1  2  1  0
  2  3  1  0
  3  4  1  0
  4  5  1  0
  5  6  1  0
  5  7  1  0
  5  8  1  0
  8  9  2  0
  8 10  2  0
  8 11  1  0
  4 12  1  0
  4 13  1  0
  3 14  1  0
  3 15  1  0
  2 16  1  0
  2 17  1  0
  1 18  1  0
 18 19  1  0
 19 20  1  0
 20 21  1  0
 20 22  1  0
 20 23  1  0
 19 24  1  0
 19 25  1  0
 18 26  1  0
 18 27  1  0
  1 28  1  0
  1 29  1  0
M  END
$$$$
