
     RDKit          3D

 29 28  0  0  0  0  0  0  0  0999 V2000
    3.8400   -9.2554  -14.2642 C   0  0  0  0  0  0  0  0  0  0  0  0
    3.9463   -8.7660  -15.6427 C   0  0  0  0  0  0  0  0  0  0  0  0
    4.0805   -9.8046  -16.7127 C   0  0  0  0  0  0  0  0  0  0  0  0
    4.0945   -9.3362  -18.1157 C   0  0  0  0  0  0  0  0  0  0  0  0
    3.8705  -10.4132  -19.1665 C   0  0  0  0  0  0  0  0  0  0  0  0
    2.6486  -11.0125  -18.8285 F   0  0  0  0  0  0  0  0  0  0  0  0
    4.8429  -11.3540  -18.9793 F   0  0  0  0  0  0  0  0  0  0  0  0
    3.7525   -9.9025  -20.8185 S   0  0  0  0  0  0  0  0  0  0  0  0
    4.8710   -9.0024  -21.2473 O   0  0  0  0  0  0  0  0  0  0  0  0
    3.5569  -11.0056  -21.8247 O   0  0  0  0  0  0  0  0  0  0  0  0
    2.3211   -8.9533  -20.9531 O   0  0  0  0  0  0  0  0  0  0  0  0
    5.3193   -8.7124  -18.4395 F   0  0  0  0  0  0  0  0  0  0  0  0
    3.1207   -8.3822  -18.2951 F   0  0  0  0  0  0  0  0  0  0  0  0
    3.0075  -10.7016  -16.5984 F   0  0  0  0  0  0  0  0  0  0  0  0
    5.2128  -10.5746  -16.4037 F   0  0  0  0  0  0  0  0  0  0  0  0
    2.8184   -7.9843  -16.0014 F   0  0  0  0  0  0  0  0  0  0  0  0
    5.0075   -7.8599  -15.7577 F   0  0  0  0  0  0  0  0  0  0  0  0
    3.9626   -8.2713  -13.1499 C   0  0  0  0  0  0  0  0  0  0  0  0
    3.7862   -8.7259  -11.7501 C   0  0  0  0  0  0  0  0  0  0  0  0
    3.7899   -7.4877  -10.8086 C   0  0  0  0  0  0  0  0  0  0  0  0
    3.3307   -7.9024   -9.5720 F   0  0  0  0  0  0  0  0  0  0  0  0
    2.9864   -6.5134  -11.3682 F   0  0  0  0  0  0  0  0  0  0  0  0
    5.0555   -6.9867  -10.6987 F   0  0  0  0  0  0  0  0  0  0  0  0
    4.7976   -9.5428  -11.3238 F   0  0  0  0  0  0  0  0  0  0  0  0
    2.5629   -9.3534  -11.5077 F   0  0  0  0  0  0  0  0  0  0  0  0
    3.1404   -7.1912  -13.4587 F   0  0  0  0  0  0  0  0  0  0  0  0
    5.2650   -7.7301  -13.2184 F   0  0  0  0  0  0  0  0  0  0  0  0
    4.9918  -10.0805  -14.0457 F   0  0  0  0  0  0  0  0  0  0  0  0
    2.7790  -10.1246  -14.1234 F   0  0  0  0  0  0  0  0  0  0  0  0
  1  2  1  0
  2  3  1  0
  3  4  1  0
  4  5  1  0
  5  6  1  0
  5  7  1  0
  5  8  1  0
  8  9  2  0
  8 10  2  0
  8 11  1  0
  4 12  1  0
  4 13  1  0
  3 14  1  0
  3 15  1  0
  2 16  1  0
  2 17  1  0
  1 18  1  0
 18 19  1  0
 19 20  1  0
 20 21  1  0
 20 22  1  0
 20 23  1  0
 19 24  1  0
 19 25  1  0
 18 26  1  0
 18 27  1  0
  1 28  1  0
  1 29  1  0
M  END
$$$$
