
     RDKit          3D

  5  4  0  0  0  0  0  0  0  0999 V2000
   -0.5192   -3.4414   15.3469 C   0  0  0  0  0  0  0  0  0  0  0  0
   -1.8704   -3.1739   15.9629 C   0  0  0  0  0  0  0  0  0  0  0  0
   -2.2710   -3.7524   16.9911 O   0  0  0  0  0  0  0  0  0  0  0  0
   -2.7539   -2.2403   15.3880 O   0  0  0  0  0  0  0  0  0  0  0  0
    0.0484   -4.4079   16.1789 F   0  0  0  0  0  0  0  0  0  0  0  0
  1  2  1  0
  2  3  2  0
  2  4  1  0
  1  5  1  0
M  END
$$$$
