
     RDKit          3D

  5  4  0  0  0  0  0  0  0  0999 V2000
   -1.7702   17.0910    2.4886 C   0  0  0  0  0  0  0  0  0  0  0  0
   -2.9312   17.9348    2.0228 C   0  0  0  0  0  0  0  0  0  0  0  0
   -2.8754   19.1771    1.9446 O   0  0  0  0  0  0  0  0  0  0  0  0
   -4.1523   17.3406    1.6508 O   0  0  0  0  0  0  0  0  0  0  0  0
   -2.1511   16.6612    3.7608 F   0  0  0  0  0  0  0  0  0  0  0  0
  1  2  1  0
  2  3  2  0
  2  4  1  0
  1  5  1  0
M  END
$$$$
