
     RDKit          3D

  5  4  0  0  0  0  0  0  0  0999 V2000
  -11.7103    3.4464    8.2333 C   0  0  0  0  0  0  0  0  0  0  0  0
  -12.2421    3.6155    6.8313 C   0  0  0  0  0  0  0  0  0  0  0  0
  -11.5852    4.1537    5.9195 O   0  0  0  0  0  0  0  0  0  0  0  0
  -13.5308    3.1635    6.4886 O   0  0  0  0  0  0  0  0  0  0  0  0
  -10.5279    4.1882    8.2401 F   0  0  0  0  0  0  0  0  0  0  0  0
  1  2  1  0
  2  3  2  0
  2  4  1  0
  1  5  1  0
M  END
$$$$
