
     RDKit          3D

  5  4  0  0  0  0  0  0  0  0999 V2000
    8.2699   -3.4086  -13.1971 C   0  0  0  0  0  0  0  0  0  0  0  0
    9.7159   -3.4907  -13.5459 C   0  0  0  0  0  0  0  0  0  0  0  0
   10.1722   -4.4882  -14.1932 O   0  0  0  0  0  0  0  0  0  0  0  0
   10.6255   -2.5184  -13.1992 O   0  0  0  0  0  0  0  0  0  0  0  0
    7.9435   -2.2176  -12.5839 F   0  0  0  0  0  0  0  0  0  0  0  0
  1  2  1  0
  2  3  2  0
  2  4  1  0
  1  5  1  0
M  END
$$$$
