
     RDKit          3D

  5  4  0  0  0  0  0  0  0  0999 V2000
   -1.6410    7.4435    8.7573 C   0  0  0  0  0  0  0  0  0  0  0  0
   -1.7579    7.6561   10.2272 C   0  0  0  0  0  0  0  0  0  0  0  0
   -2.8487    8.0690   10.7390 O   0  0  0  0  0  0  0  0  0  0  0  0
   -0.7207    7.4255   11.1012 O   0  0  0  0  0  0  0  0  0  0  0  0
   -2.7525    7.8856    8.0717 F   0  0  0  0  0  0  0  0  0  0  0  0
  1  2  1  0
  2  3  2  0
  2  4  1  0
  1  5  1  0
M  END
$$$$
