
     RDKit          3D

  5  4  0  0  0  0  0  0  0  0999 V2000
    8.5289  -10.9430   11.8663 C   0  0  0  0  0  0  0  0  0  0  0  0
    8.0526  -12.3544   11.8432 C   0  0  0  0  0  0  0  0  0  0  0  0
    8.6244  -13.2209   11.1054 O   0  0  0  0  0  0  0  0  0  0  0  0
    6.9919  -12.7983   12.5987 O   0  0  0  0  0  0  0  0  0  0  0  0
    9.3548  -10.6490   10.8021 F   0  0  0  0  0  0  0  0  0  0  0  0
  1  2  1  0
  2  3  2  0
  2  4  1  0
  1  5  1  0
M  END
$$$$
