
     RDKit          3D

  5  4  0  0  0  0  0  0  0  0999 V2000
   -2.9760   -6.1423  -10.9579 C   0  0  0  0  0  0  0  0  0  0  0  0
   -3.5088   -7.1943  -10.0475 C   0  0  0  0  0  0  0  0  0  0  0  0
   -3.6988   -6.9489   -8.8123 O   0  0  0  0  0  0  0  0  0  0  0  0
   -3.8210   -8.4645  -10.4740 O   0  0  0  0  0  0  0  0  0  0  0  0
   -2.9539   -4.8969  -10.3668 F   0  0  0  0  0  0  0  0  0  0  0  0
  1  2  1  0
  2  3  2  0
  2  4  1  0
  1  5  1  0
M  END
$$$$
