
     RDKit          3D

  4  3  0  0  0  0  0  0  0  0999 V2000
   -0.8949    9.3853   -0.9744 C   0  0  0  0  0  0  0  0  0  0  0  0
   -0.6265   10.8656   -0.7914 C   0  0  0  0  0  0  0  0  0  0  0  0
   -1.6745   11.8651   -1.8167 Cl  0  0  0  0  0  0  0  0  0  0  0  0
    0.4274    8.4212   -0.2429 Cl  0  0  0  0  0  0  0  0  0  0  0  0
  1  2  1  0
  2  3  1  0
  1  4  1  0
M  END
$$$$
