
     RDKit          3D

  4  3  0  0  0  0  0  0  0  0999 V2000
  -12.0638  -10.1721    3.6200 C   0  0  0  0  0  0  0  0  0  0  0  0
  -10.8300   -9.7544    2.8456 C   0  0  0  0  0  0  0  0  0  0  0  0
   -9.3565  -10.5140    3.4786 Cl  0  0  0  0  0  0  0  0  0  0  0  0
  -13.5247   -9.4081    2.9164 Cl  0  0  0  0  0  0  0  0  0  0  0  0
  1  2  1  0
  2  3  1  0
  1  4  1  0
M  END
$$$$
