
     RDKit          3D

  4  3  0  0  0  0  0  0  0  0999 V2000
   -9.1946  -11.7631    0.3097 C   0  0  0  0  0  0  0  0  0  0  0  0
   -9.7750  -11.8622    1.7061 C   0  0  0  0  0  0  0  0  0  0  0  0
  -10.1695  -10.2683    2.3790 Cl  0  0  0  0  0  0  0  0  0  0  0  0
   -8.3903  -13.3014   -0.1372 Cl  0  0  0  0  0  0  0  0  0  0  0  0
  1  2  1  0
  2  3  1  0
  1  4  1  0
M  END
$$$$
