
     RDKit          3D

  4  3  0  0  0  0  0  0  0  0999 V2000
   -7.8243   10.4084   -6.3729 C   0  0  0  0  0  0  0  0  0  0  0  0
   -8.7370   11.5976   -6.5952 C   0  0  0  0  0  0  0  0  0  0  0  0
   -7.8402   13.0397   -7.1098 Cl  0  0  0  0  0  0  0  0  0  0  0  0
   -8.7780    8.9862   -5.8432 Cl  0  0  0  0  0  0  0  0  0  0  0  0
  1  2  1  0
  2  3  1  0
  1  4  1  0
M  END
$$$$
