
     RDKit          3D

  4  3  0  0  0  0  0  0  0  0999 V2000
  -11.6058  -10.6811   -7.5112 C   0  0  0  0  0  0  0  0  0  0  0  0
  -10.4833   -9.6687   -7.4034 C   0  0  0  0  0  0  0  0  0  0  0  0
  -10.3171   -9.0303   -5.7561 Cl  0  0  0  0  0  0  0  0  0  0  0  0
  -11.8853  -11.1154   -9.2277 Cl  0  0  0  0  0  0  0  0  0  0  0  0
  1  2  1  0
  2  3  1  0
  1  4  1  0
M  END
$$$$
