
     RDKit          3D

  5  4  0  0  0  0  0  0  0  0999 V2000
    5.3611   -6.7426   -9.0633 C   0  0  0  0  0  0  0  0  0  0  0  0
    4.9185   -6.8834  -10.4863 C   0  0  0  0  0  0  0  0  0  0  0  0
    5.6786   -6.4487  -11.4154 O   0  0  0  0  0  0  0  0  0  0  0  0
    3.6957   -7.4784  -10.8124 O   0  0  0  0  0  0  0  0  0  0  0  0
    6.6144   -6.1379   -9.0534 F   0  0  0  0  0  0  0  0  0  0  0  0
  1  2  1  0
  2  3  2  0
  2  4  1  0
  1  5  1  0
M  END
$$$$
