
     RDKit          3D

  5  4  0  0  0  0  0  0  0  0999 V2000
   14.9354   -2.1543   -0.5427 C   0  0  0  0  0  0  0  0  0  0  0  0
   15.2426   -1.5428   -1.8740 C   0  0  0  0  0  0  0  0  0  0  0  0
   15.3058   -2.2986   -2.9011 O   0  0  0  0  0  0  0  0  0  0  0  0
   15.4601   -0.1681   -2.0104 O   0  0  0  0  0  0  0  0  0  0  0  0
   15.1442   -3.5271   -0.6339 F   0  0  0  0  0  0  0  0  0  0  0  0
  1  2  1  0
  2  3  2  0
  2  4  1  0
  1  5  1  0
M  END
$$$$
