
     RDKit          3D

  5  4  0  0  0  0  0  0  0  0999 V2000
  -15.6442    5.0873    7.6245 C   0  0  0  0  0  0  0  0  0  0  0  0
  -16.7272    5.9841    7.1111 C   0  0  0  0  0  0  0  0  0  0  0  0
  -16.4202    6.9218    6.3008 O   0  0  0  0  0  0  0  0  0  0  0  0
  -18.0592    5.8131    7.5011 O   0  0  0  0  0  0  0  0  0  0  0  0
  -14.4237    5.5633    7.1550 F   0  0  0  0  0  0  0  0  0  0  0  0
  1  2  1  0
  2  3  2  0
  2  4  1  0
  1  5  1  0
M  END
$$$$
