
     RDKit          3D

  5  4  0  0  0  0  0  0  0  0999 V2000
   14.6279    5.9943   -1.1446 C   0  0  0  0  0  0  0  0  0  0  0  0
   13.2407    6.3062   -1.6126 C   0  0  0  0  0  0  0  0  0  0  0  0
   12.7006    5.5519   -2.4898 O   0  0  0  0  0  0  0  0  0  0  0  0
   12.5321    7.4015   -1.1090 O   0  0  0  0  0  0  0  0  0  0  0  0
   15.2052    5.1081   -2.0491 F   0  0  0  0  0  0  0  0  0  0  0  0
  1  2  1  0
  2  3  2  0
  2  4  1  0
  1  5  1  0
M  END
$$$$
