
     RDKit          3D

  4  3  0  0  0  0  0  0  0  0999 V2000
    5.8987  -15.5218    4.5457 C   0  0  0  0  0  0  0  0  0  0  0  0
    5.5275  -15.2602    5.9915 C   0  0  0  0  0  0  0  0  0  0  0  0
    3.8507  -14.7043    6.1594 Cl  0  0  0  0  0  0  0  0  0  0  0  0
    7.6687  -15.3509    4.3202 Cl  0  0  0  0  0  0  0  0  0  0  0  0
  1  2  1  0
  2  3  1  0
  1  4  1  0
M  END
$$$$
