
     RDKit          3D

  4  3  0  0  0  0  0  0  0  0999 V2000
    7.0871  -19.0350    1.6928 C   0  0  0  0  0  0  0  0  0  0  0  0
    8.4778  -19.5968    1.9093 C   0  0  0  0  0  0  0  0  0  0  0  0
    8.5649  -21.3275    1.5277 Cl  0  0  0  0  0  0  0  0  0  0  0  0
    6.9774  -17.3770    2.3651 Cl  0  0  0  0  0  0  0  0  0  0  0  0
  1  2  1  0
  2  3  1  0
  1  4  1  0
M  END
$$$$
