
     RDKit          3D

  4  3  0  0  0  0  0  0  0  0999 V2000
    3.7382  -13.2140    5.0362 C   0  0  0  0  0  0  0  0  0  0  0  0
    3.4846  -13.0003    3.5574 C   0  0  0  0  0  0  0  0  0  0  0  0
    2.6893  -11.4472    3.2349 Cl  0  0  0  0  0  0  0  0  0  0  0  0
    4.4158  -14.8494    5.3182 Cl  0  0  0  0  0  0  0  0  0  0  0  0
  1  2  1  0
  2  3  1  0
  1  4  1  0
M  END
$$$$
