
     RDKit          3D

  4  3  0  0  0  0  0  0  0  0999 V2000
    3.0095  -12.3259    2.0140 C   0  0  0  0  0  0  0  0  0  0  0  0
    2.9396  -13.2406    3.2203 C   0  0  0  0  0  0  0  0  0  0  0  0
    3.0305  -12.3398    4.7464 Cl  0  0  0  0  0  0  0  0  0  0  0  0
    3.5946  -13.2325    0.5826 Cl  0  0  0  0  0  0  0  0  0  0  0  0
  1  2  1  0
  2  3  1  0
  1  4  1  0
M  END
$$$$
