
     RDKit          3D

  4  3  0  0  0  0  0  0  0  0999 V2000
    5.1445  -14.9596    5.3859 C   0  0  0  0  0  0  0  0  0  0  0  0
    4.6956  -14.2994    4.0978 C   0  0  0  0  0  0  0  0  0  0  0  0
    4.4953  -15.4726    2.7817 Cl  0  0  0  0  0  0  0  0  0  0  0  0
    5.1941  -13.7566    6.7138 Cl  0  0  0  0  0  0  0  0  0  0  0  0
  1  2  1  0
  2  3  1  0
  1  4  1  0
M  END
$$$$
