
     RDKit          3D

101110  0  0  0  0  0  0  0  0999 V2000
    1.2735  -42.3051   25.0366 C   0  0  0  0  0  0  0  0  0  0  0  0
    2.3587  -41.3375   25.5163 C   0  0  0  0  0  0  0  0  0  0  0  0
    3.0110  -40.7678   24.3028 C   0  0  0  0  0  0  0  0  0  0  0  0
    4.3360  -40.1267   24.5714 C   0  0  0  0  0  0  0  0  0  0  0  0
    4.9549  -40.5912   25.8499 C   0  0  0  0  0  0  0  0  0  0  0  0
    4.5129  -42.0453   26.0812 C   0  0  0  0  0  0  0  0  0  0  0  0
    3.1639  -41.9976   26.3955 O   0  0  0  0  0  0  0  0  0  0  0  0
    5.2233  -42.4597   27.1723 O   0  0  0  0  0  0  0  0  0  0  0  0
    6.5750  -42.7051   27.0051 C   0  0  0  0  0  0  0  0  0  0  0  0
    7.3777  -41.7184   27.8619 C   0  0  0  0  0  0  0  0  0  0  0  0
    8.3982  -42.4277   28.6928 C   0  0  0  0  0  0  0  0  0  0  0  0
    7.8971  -43.5781   29.4678 C   0  0  0  0  0  0  0  0  0  0  0  0
    6.8410  -44.1765   28.8620 O   0  0  0  0  0  0  0  0  0  0  0  0
    6.8163  -44.1020   27.4562 C   0  0  0  0  0  0  0  0  0  0  0  0
    5.8927  -45.0250   27.0136 O   0  0  0  0  0  0  0  0  0  0  0  0
    5.8367  -46.3600   27.2804 C   0  0  0  0  0  0  0  0  0  0  0  0
    4.5987  -46.9632   27.2533 C   0  0  0  0  0  0  0  0  0  0  0  0
    4.4164  -48.3249   27.5160 C   0  0  0  0  0  0  0  0  0  0  0  0
    5.4791  -49.1347   27.8146 C   0  0  0  0  0  0  0  0  0  0  0  0
    6.7214  -48.5423   27.8432 C   0  0  0  0  0  0  0  0  0  0  0  0
    6.9058  -47.1778   27.5822 C   0  0  0  0  0  0  0  0  0  0  0  0
    8.1956  -46.6146   27.6253 O   0  0  0  0  0  0  0  0  0  0  0  0
    9.1575  -47.4974   28.1677 C   0  0  0  0  0  0  0  0  0  0  0  0
    9.2322  -47.5923   29.5414 C   0  0  0  0  0  0  0  0  0  0  0  0
   10.1837  -48.4738   30.0682 C   0  0  0  0  0  0  0  0  0  0  0  0
   10.9960  -49.2006   29.2288 C   0  0  0  0  0  0  0  0  0  0  0  0
   10.8888  -49.0721   27.8604 C   0  0  0  0  0  0  0  0  0  0  0  0
    9.9616  -48.2135   27.3108 C   0  0  0  0  0  0  0  0  0  0  0  0
   11.9784  -50.1335   29.8517 C   0  0  0  0  0  0  0  0  0  0  0  0
   11.5626  -51.5449   29.8949 C   0  0  0  0  0  0  0  0  0  0  0  0
   10.3252  -51.9046   29.1541 C   0  0  0  0  0  0  0  0  0  0  0  0
   10.1464  -51.8009   27.9388 O   0  0  0  0  0  0  0  0  0  0  0  0
    9.1641  -52.4480   29.8593 N   0  0  0  0  0  0  0  0  0  0  0  0
    7.8203  -52.2673   29.3644 C   0  0  0  0  0  0  0  0  0  0  0  0
    7.1095  -51.1025   29.8994 C   0  0  0  0  0  0  0  0  0  0  0  0
    7.6100  -50.2776   30.7257 O   0  0  0  0  0  0  0  0  0  0  0  0
    5.7853  -50.8561   29.4902 N   0  0  0  0  0  0  0  0  0  0  0  0
    5.4035  -50.5810   28.0941 C   0  0  0  0  0  0  0  0  0  0  0  0
    4.1113  -51.2210   27.7772 C   0  0  0  0  0  0  0  0  0  0  0  0
    2.9964  -50.8222   28.1801 O   0  0  0  0  0  0  0  0  0  0  0  0
    4.0073  -52.4094   26.9524 N   0  0  0  0  0  0  0  0  0  0  0  0
    3.0991  -52.5908   25.8639 C   0  0  0  0  0  0  0  0  0  0  0  0
    2.0563  -53.6228   26.2098 C   0  0  0  0  0  0  0  0  0  0  0  0
    1.2979  -54.1912   25.2127 C   0  0  0  0  0  0  0  0  0  0  0  0
    0.3690  -55.1325   25.5854 C   0  0  0  0  0  0  0  0  0  0  0  0
    0.1506  -55.5439   26.8871 C   0  0  0  0  0  0  0  0  0  0  0  0
    0.9196  -54.9655   27.8743 C   0  0  0  0  0  0  0  0  0  0  0  0
    1.8747  -54.0006   27.5272 C   0  0  0  0  0  0  0  0  0  0  0  0
   -0.8207  -56.5063   27.1343 O   0  0  0  0  0  0  0  0  0  0  0  0
   -0.5097  -55.8050   24.5910 C   0  0  0  0  0  0  0  0  0  0  0  0
   -1.3601  -55.0851   23.8004 C   0  0  0  0  0  0  0  0  0  0  0  0
   -2.1501  -55.8077   22.8951 C   0  0  0  0  0  0  0  0  0  0  0  0
   -2.0329  -57.1856   22.8486 C   0  0  0  0  0  0  0  0  0  0  0  0
   -1.1534  -57.8793   23.6736 C   0  0  0  0  0  0  0  0  0  0  0  0
   -0.3715  -57.1792   24.5674 C   0  0  0  0  0  0  0  0  0  0  0  0
    0.5370  -57.7941   25.4315 O   0  0  0  0  0  0  0  0  0  0  0  0
   -2.8430  -57.8422   21.9306 O   0  0  0  0  0  0  0  0  0  0  0  0
   -1.5068  -53.6049   23.8772 C   0  0  0  0  0  0  0  0  0  0  0  0
   -0.6806  -52.8869   22.9327 N   0  0  0  0  0  0  0  0  0  0  0  0
   -0.4579  -51.5032   23.1071 C   0  0  0  0  0  0  0  0  0  0  0  0
   -1.4770  -50.7821   22.7940 O   0  0  0  0  0  0  0  0  0  0  0  0
    0.7572  -50.8192   23.5823 C   0  0  0  0  0  0  0  0  0  0  0  0
    0.5833  -49.3003   23.3109 C   0  0  0  0  0  0  0  0  0  0  0  0
    1.2627  -48.4511   24.2738 C   0  0  0  0  0  0  0  0  0  0  0  0
    2.4136  -47.7865   23.8442 C   0  0  0  0  0  0  0  0  0  0  0  0
    3.0949  -47.0509   24.7568 C   0  0  0  0  0  0  0  0  0  0  0  0
    2.6196  -46.9993   26.0468 C   0  0  0  0  0  0  0  0  0  0  0  0
    3.4157  -46.2183   26.9431 O   0  0  0  0  0  0  0  0  0  0  0  0
    1.4891  -47.6388   26.4884 C   0  0  0  0  0  0  0  0  0  0  0  0
    0.7947  -48.3867   25.5647 C   0  0  0  0  0  0  0  0  0  0  0  0
    4.5407  -46.2100   24.2254 Cl  0  0  0  0  0  0  0  0  0  0  0  0
    0.9709  -49.0047   22.0008 O   0  0  0  0  0  0  0  0  0  0  0  0
    1.1886  -51.1165   24.9071 N   0  0  0  0  0  0  0  0  0  0  0  0
    2.5210  -51.3411   25.3470 C   0  0  0  0  0  0  0  0  0  0  0  0
    3.2900  -50.3544   25.2879 O   0  0  0  0  0  0  0  0  0  0  0  0
   -2.9784  -53.3334   23.6388 C   0  0  0  0  0  0  0  0  0  0  0  0
   -3.7365  -53.3314   24.6145 O   0  0  0  0  0  0  0  0  0  0  0  0
   -3.4883  -53.0916   22.3779 O   0  0  0  0  0  0  0  0  0  0  0  0
    6.9734  -53.4845   29.7963 C   0  0  0  0  0  0  0  0  0  0  0  0
    7.7751  -54.3947   30.6250 C   0  0  0  0  0  0  0  0  0  0  0  0
    7.4036  -55.5343   30.9909 O   0  0  0  0  0  0  0  0  0  0  0  0
    9.0575  -53.9642   31.0451 N   0  0  0  0  0  0  0  0  0  0  0  0
   11.4734  -52.0130   31.2731 N   0  0  0  0  0  0  0  0  0  0  0  0
   12.3436  -51.5516   32.2712 C   0  0  0  0  0  0  0  0  0  0  0  0
   12.9288  -50.4321   32.0391 O   0  0  0  0  0  0  0  0  0  0  0  0
   12.6742  -52.1966   33.5471 C   0  0  0  0  0  0  0  0  0  0  0  0
   12.1295  -51.4016   34.7249 C   0  0  0  0  0  0  0  0  0  0  0  0
   10.6486  -51.5369   34.8027 C   0  0  0  0  0  0  0  0  0  0  0  0
   10.0661  -50.6720   33.6774 C   0  0  0  0  0  0  0  0  0  0  0  0
   10.1480  -50.9898   36.1113 C   0  0  0  0  0  0  0  0  0  0  0  0
   14.0856  -52.4054   33.6683 N   0  0  0  0  0  0  0  0  0  0  0  0
   14.3549  -53.8296   33.6724 C   0  0  0  0  0  0  0  0  0  0  0  0
   12.4323  -49.6389   31.0782 O   0  0  0  0  0  0  0  0  0  0  0  0
    8.1975  -46.6613   30.6011 Cl  0  0  0  0  0  0  0  0  0  0  0  0
    7.5995  -43.1180   30.8838 C   0  0  0  0  0  0  0  0  0  0  0  0
    8.1774  -44.0698   31.7293 O   0  0  0  0  0  0  0  0  0  0  0  0
    9.4156  -42.8867   27.8182 O   0  0  0  0  0  0  0  0  0  0  0  0
    8.0508  -40.7897   27.0793 O   0  0  0  0  0  0  0  0  0  0  0  0
    4.2407  -38.6036   24.5318 C   0  0  0  0  0  0  0  0  0  0  0  0
    5.2292  -40.5001   23.4783 N   0  0  0  0  0  0  0  0  0  0  0  0
    3.0369  -41.6510   23.2060 O   0  0  0  0  0  0  0  0  0  0  0  0
  1  2  1  0
  2  3  1  0
  3  4  1  0
  4  5  1  0
  5  6  1  0
  6  7  1  0
  6  8  1  0
  8  9  1  0
  9 10  1  0
 10 11  1  0
 11 12  1  0
 12 13  1  0
 13 14  1  0
 14 15  1  0
 15 16  1  0
 16 17  1  0
 17 18  2  0
 18 19  1  0
 19 20  2  0
 20 21  1  0
 21 22  1  0
 22 23  1  0
 23 24  2  0
 24 25  1  0
 25 26  2  0
 26 27  1  0
 27 28  2  0
 26 29  1  0
 29 30  1  0
 30 31  1  0
 31 32  2  0
 31 33  1  0
 33 34  1  0
 34 35  1  0
 35 36  2  0
 35 37  1  0
 37 38  1  0
 38 39  1  0
 39 40  2  0
 39 41  1  0
 41 42  1  0
 42 43  1  0
 43 44  2  0
 44 45  1  0
 45 46  2  0
 46 47  1  0
 47 48  2  0
 46 49  1  0
 45 50  1  0
 50 51  1  0
 51 52  2  0
 52 53  1  0
 53 54  2  0
 54 55  1  0
 55 56  1  0
 53 57  1  0
 51 58  1  0
 58 59  1  0
 59 60  1  0
 60 61  2  0
 60 62  1  0
 62 63  1  0
 63 64  1  0
 64 65  2  0
 65 66  1  0
 66 67  2  0
 67 68  1  0
 67 69  1  0
 69 70  2  0
 66 71  1  0
 63 72  1  0
 62 73  1  0
 73 74  1  0
 74 75  2  0
 58 76  1  0
 76 77  2  0
 76 78  1  0
 34 79  1  0
 79 80  1  0
 80 81  2  0
 80 82  1  0
 30 83  1  0
 83 84  1  0
 84 85  2  0
 84 86  1  0
 86 87  1  0
 87 88  1  0
 88 89  1  0
 88 90  1  0
 86 91  1  0
 91 92  1  0
 29 93  1  0
 24 94  1  0
 12 95  1  0
 95 96  1  0
 11 97  1  0
 10 98  1  0
  4 99  1  0
  4100  1  0
  3101  1  0
  7  2  1  0
 70 64  1  0
 14  9  1  0
 21 16  2  0
 68 17  1  0
 38 19  1  0
 28 23  1  0
 74 42  1  0
 48 43  1  0
 55 50  2  0
M  END
$$$$
