
     RDKit          3D

101110  0  0  0  0  0  0  0  0999 V2000
    4.1617  -54.1462   17.3212 C   0  0  0  0  0  0  0  0  0  0  0  0
    3.2422  -55.3618   17.1781 C   0  0  0  0  0  0  0  0  0  0  0  0
    3.2743  -55.7745   15.7459 C   0  0  0  0  0  0  0  0  0  0  0  0
    2.1459  -56.6733   15.3486 C   0  0  0  0  0  0  0  0  0  0  0  0
    0.9843  -56.5920   16.2853 C   0  0  0  0  0  0  0  0  0  0  0  0
    0.9374  -55.1621   16.8478 C   0  0  0  0  0  0  0  0  0  0  0  0
    2.0242  -55.0422   17.6995 O   0  0  0  0  0  0  0  0  0  0  0  0
   -0.2202  -55.1065   17.5716 O   0  0  0  0  0  0  0  0  0  0  0  0
   -0.4034  -54.0210   18.4102 C   0  0  0  0  0  0  0  0  0  0  0  0
   -1.8148  -53.4568   18.2057 C   0  0  0  0  0  0  0  0  0  0  0  0
   -2.5228  -53.2814   19.5106 C   0  0  0  0  0  0  0  0  0  0  0  0
   -2.5022  -54.4531   20.4062 C   0  0  0  0  0  0  0  0  0  0  0  0
   -1.3921  -55.2114   20.2239 O   0  0  0  0  0  0  0  0  0  0  0  0
   -0.2397  -54.5215   19.8015 C   0  0  0  0  0  0  0  0  0  0  0  0
    0.8351  -55.3630   19.9953 O   0  0  0  0  0  0  0  0  0  0  0  0
    1.2992  -55.8864   21.1647 C   0  0  0  0  0  0  0  0  0  0  0  0
    1.0995  -57.2316   21.3835 C   0  0  0  0  0  0  0  0  0  0  0  0
    1.5262  -57.8786   22.5478 C   0  0  0  0  0  0  0  0  0  0  0  0
    2.1756  -57.1928   23.5390 C   0  0  0  0  0  0  0  0  0  0  0  0
    2.3815  -55.8478   23.3300 C   0  0  0  0  0  0  0  0  0  0  0  0
    1.9529  -55.1975   22.1649 C   0  0  0  0  0  0  0  0  0  0  0  0
    2.1835  -53.8188   21.9957 O   0  0  0  0  0  0  0  0  0  0  0  0
    2.6460  -53.1949   23.1771 C   0  0  0  0  0  0  0  0  0  0  0  0
    1.7059  -52.8473   24.1241 C   0  0  0  0  0  0  0  0  0  0  0  0
    2.1748  -52.2357   25.2929 C   0  0  0  0  0  0  0  0  0  0  0  0
    3.5201  -52.0032   25.4624 C   0  0  0  0  0  0  0  0  0  0  0  0
    4.4252  -52.3648   24.4875 C   0  0  0  0  0  0  0  0  0  0  0  0
    3.9953  -52.9692   23.3261 C   0  0  0  0  0  0  0  0  0  0  0  0
    3.9573  -51.3625   26.7360 C   0  0  0  0  0  0  0  0  0  0  0  0
    4.4728  -52.2873   27.7585 C   0  0  0  0  0  0  0  0  0  0  0  0
    4.6786  -53.7002   27.3452 C   0  0  0  0  0  0  0  0  0  0  0  0
    5.4520  -54.0996   26.4723 O   0  0  0  0  0  0  0  0  0  0  0  0
    3.9367  -54.7829   27.9919 N   0  0  0  0  0  0  0  0  0  0  0  0
    3.6364  -56.0159   27.3042 C   0  0  0  0  0  0  0  0  0  0  0  0
    2.3356  -56.0536   26.6298 C   0  0  0  0  0  0  0  0  0  0  0  0
    1.5116  -55.0869   26.6124 O   0  0  0  0  0  0  0  0  0  0  0  0
    1.9463  -57.2229   25.9496 N   0  0  0  0  0  0  0  0  0  0  0  0
    2.6791  -57.7754   24.7970 C   0  0  0  0  0  0  0  0  0  0  0  0
    2.6904  -59.2507   24.8523 C   0  0  0  0  0  0  0  0  0  0  0  0
    1.7087  -59.9846   24.6034 O   0  0  0  0  0  0  0  0  0  0  0  0
    3.8699  -60.0117   25.2171 N   0  0  0  0  0  0  0  0  0  0  0  0
    4.3834  -61.1423   24.5095 C   0  0  0  0  0  0  0  0  0  0  0  0
    4.2105  -62.3999   25.3222 C   0  0  0  0  0  0  0  0  0  0  0  0
    4.9191  -63.5318   24.9920 C   0  0  0  0  0  0  0  0  0  0  0  0
    4.7283  -64.6458   25.7732 C   0  0  0  0  0  0  0  0  0  0  0  0
    3.8789  -64.7018   26.8625 C   0  0  0  0  0  0  0  0  0  0  0  0
    3.1770  -63.5588   27.1809 C   0  0  0  0  0  0  0  0  0  0  0  0
    3.3478  -62.4060   26.4025 C   0  0  0  0  0  0  0  0  0  0  0  0
    3.7741  -65.8911   27.5734 O   0  0  0  0  0  0  0  0  0  0  0  0
    5.4370  -65.9255   25.5021 C   0  0  0  0  0  0  0  0  0  0  0  0
    5.2905  -66.5738   24.3083 C   0  0  0  0  0  0  0  0  0  0  0  0
    5.9967  -67.7742   24.1470 C   0  0  0  0  0  0  0  0  0  0  0  0
    6.7898  -68.2344   25.1832 C   0  0  0  0  0  0  0  0  0  0  0  0
    6.9098  -67.5417   26.3838 C   0  0  0  0  0  0  0  0  0  0  0  0
    6.2202  -66.3602   26.5536 C   0  0  0  0  0  0  0  0  0  0  0  0
    6.2830  -65.6013   27.7242 O   0  0  0  0  0  0  0  0  0  0  0  0
    7.4629  -69.4290   24.9602 O   0  0  0  0  0  0  0  0  0  0  0  0
    4.4096  -66.0917   23.2083 C   0  0  0  0  0  0  0  0  0  0  0  0
    5.0962  -65.2912   22.2194 N   0  0  0  0  0  0  0  0  0  0  0  0
    4.3505  -64.4978   21.3198 C   0  0  0  0  0  0  0  0  0  0  0  0
    3.7763  -65.1840   20.3946 O   0  0  0  0  0  0  0  0  0  0  0  0
    4.1659  -63.0364   21.3166 C   0  0  0  0  0  0  0  0  0  0  0  0
    3.5123  -62.6438   19.9640 C   0  0  0  0  0  0  0  0  0  0  0  0
    2.6508  -61.4770   20.0459 C   0  0  0  0  0  0  0  0  0  0  0  0
    3.1212  -60.2906   19.4784 C   0  0  0  0  0  0  0  0  0  0  0  0
    2.3563  -59.1796   19.6150 C   0  0  0  0  0  0  0  0  0  0  0  0
    1.1675  -59.2799   20.3001 C   0  0  0  0  0  0  0  0  0  0  0  0
    0.4406  -58.0527   20.4127 O   0  0  0  0  0  0  0  0  0  0  0  0
    0.6841  -60.4354   20.8598 C   0  0  0  0  0  0  0  0  0  0  0  0
    1.4579  -61.5656   20.7230 C   0  0  0  0  0  0  0  0  0  0  0  0
    2.9379  -57.6848   18.9028 Cl  0  0  0  0  0  0  0  0  0  0  0  0
    4.4999  -62.4864   18.9874 O   0  0  0  0  0  0  0  0  0  0  0  0
    3.5187  -62.4654   22.4502 N   0  0  0  0  0  0  0  0  0  0  0  0
    3.8777  -61.2730   23.1346 C   0  0  0  0  0  0  0  0  0  0  0  0
    3.7435  -60.2094   22.4871 O   0  0  0  0  0  0  0  0  0  0  0  0
    3.8173  -67.3418   22.5899 C   0  0  0  0  0  0  0  0  0  0  0  0
    2.9744  -67.9702   23.2390 O   0  0  0  0  0  0  0  0  0  0  0  0
    4.1889  -67.7916   21.3378 O   0  0  0  0  0  0  0  0  0  0  0  0
    3.5786  -57.1543   28.3463 C   0  0  0  0  0  0  0  0  0  0  0  0
    3.4030  -56.6012   29.6958 C   0  0  0  0  0  0  0  0  0  0  0  0
    2.3263  -56.6218   30.3367 O   0  0  0  0  0  0  0  0  0  0  0  0
    4.5212  -56.0010   30.3247 N   0  0  0  0  0  0  0  0  0  0  0  0
    3.6509  -52.2338   28.9619 N   0  0  0  0  0  0  0  0  0  0  0  0
    4.2119  -52.2812   30.2463 C   0  0  0  0  0  0  0  0  0  0  0  0
    3.4531  -52.7320   31.1794 O   0  0  0  0  0  0  0  0  0  0  0  0
    5.5595  -51.8705   30.6565 C   0  0  0  0  0  0  0  0  0  0  0  0
    6.6211  -52.7777   30.0514 C   0  0  0  0  0  0  0  0  0  0  0  0
    7.9795  -52.3496   30.4861 C   0  0  0  0  0  0  0  0  0  0  0  0
    8.6704  -51.7527   29.2531 C   0  0  0  0  0  0  0  0  0  0  0  0
    8.7795  -53.5432   30.9307 C   0  0  0  0  0  0  0  0  0  0  0  0
    5.6704  -51.8192   32.0832 N   0  0  0  0  0  0  0  0  0  0  0  0
    4.9274  -50.6760   32.5750 C   0  0  0  0  0  0  0  0  0  0  0  0
    2.9857  -50.4766   27.2115 O   0  0  0  0  0  0  0  0  0  0  0  0
   -0.0034  -53.1438   23.8981 Cl  0  0  0  0  0  0  0  0  0  0  0  0
   -3.7970  -55.2254   20.2263 C   0  0  0  0  0  0  0  0  0  0  0  0
   -4.3358  -55.3807   21.5070 O   0  0  0  0  0  0  0  0  0  0  0  0
   -1.9120  -52.1931   20.1840 O   0  0  0  0  0  0  0  0  0  0  0  0
   -1.7857  -52.2184   17.5783 O   0  0  0  0  0  0  0  0  0  0  0  0
    2.6117  -58.1172   15.1792 C   0  0  0  0  0  0  0  0  0  0  0  0
    1.6907  -56.2424   14.0298 N   0  0  0  0  0  0  0  0  0  0  0  0
    3.4686  -54.7036   14.8520 O   0  0  0  0  0  0  0  0  0  0  0  0
  1  2  1  0
  2  3  1  0
  3  4  1  0
  4  5  1  0
  5  6  1  0
  6  7  1  0
  6  8  1  0
  8  9  1  0
  9 10  1  0
 10 11  1  0
 11 12  1  0
 12 13  1  0
 13 14  1  0
 14 15  1  0
 15 16  1  0
 16 17  1  0
 17 18  2  0
 18 19  1  0
 19 20  2  0
 20 21  1  0
 21 22  1  0
 22 23  1  0
 23 24  2  0
 24 25  1  0
 25 26  2  0
 26 27  1  0
 27 28  2  0
 26 29  1  0
 29 30  1  0
 30 31  1  0
 31 32  2  0
 31 33  1  0
 33 34  1  0
 34 35  1  0
 35 36  2  0
 35 37  1  0
 37 38  1  0
 38 39  1  0
 39 40  2  0
 39 41  1  0
 41 42  1  0
 42 43  1  0
 43 44  2  0
 44 45  1  0
 45 46  2  0
 46 47  1  0
 47 48  2  0
 46 49  1  0
 45 50  1  0
 50 51  1  0
 51 52  2  0
 52 53  1  0
 53 54  2  0
 54 55  1  0
 55 56  1  0
 53 57  1  0
 51 58  1  0
 58 59  1  0
 59 60  1  0
 60 61  2  0
 60 62  1  0
 62 63  1  0
 63 64  1  0
 64 65  2  0
 65 66  1  0
 66 67  2  0
 67 68  1  0
 67 69  1  0
 69 70  2  0
 66 71  1  0
 63 72  1  0
 62 73  1  0
 73 74  1  0
 74 75  2  0
 58 76  1  0
 76 77  2  0
 76 78  1  0
 34 79  1  0
 79 80  1  0
 80 81  2  0
 80 82  1  0
 30 83  1  0
 83 84  1  0
 84 85  2  0
 84 86  1  0
 86 87  1  0
 87 88  1  0
 88 89  1  0
 88 90  1  0
 86 91  1  0
 91 92  1  0
 29 93  1  0
 24 94  1  0
 12 95  1  0
 95 96  1  0
 11 97  1  0
 10 98  1  0
  4 99  1  0
  4100  1  0
  3101  1  0
  7  2  1  0
 70 64  1  0
 14  9  1  0
 21 16  2  0
 68 17  1  0
 38 19  1  0
 28 23  1  0
 74 42  1  0
 48 43  1  0
 55 50  2  0
M  END
$$$$
