
     RDKit          3D

101110  0  0  0  0  0  0  0  0999 V2000
   10.5592  -49.5115   23.2755 C   0  0  0  0  0  0  0  0  0  0  0  0
   11.2226  -48.1502   23.0501 C   0  0  0  0  0  0  0  0  0  0  0  0
   10.9835  -47.3336   24.2743 C   0  0  0  0  0  0  0  0  0  0  0  0
   11.2033  -45.8668   24.0769 C   0  0  0  0  0  0  0  0  0  0  0  0
   11.1409  -45.4607   22.6400 C   0  0  0  0  0  0  0  0  0  0  0  0
   10.1513  -46.4000   21.9320 C   0  0  0  0  0  0  0  0  0  0  0  0
   10.7663  -47.6406   21.8714 O   0  0  0  0  0  0  0  0  0  0  0  0
   10.0228  -45.8901   20.6709 O   0  0  0  0  0  0  0  0  0  0  0  0
    9.5343  -46.7285   19.6843 C   0  0  0  0  0  0  0  0  0  0  0  0
    8.0020  -46.6629   19.6782 C   0  0  0  0  0  0  0  0  0  0  0  0
    7.4753  -46.4214   18.3002 C   0  0  0  0  0  0  0  0  0  0  0  0
    8.0962  -45.2997   17.5711 C   0  0  0  0  0  0  0  0  0  0  0  0
    9.3808  -45.0939   17.9555 O   0  0  0  0  0  0  0  0  0  0  0  0
   10.0814  -46.2346   18.3920 C   0  0  0  0  0  0  0  0  0  0  0  0
   11.4210  -45.9092   18.4128 O   0  0  0  0  0  0  0  0  0  0  0  0
   12.2482  -45.6646   17.3580 C   0  0  0  0  0  0  0  0  0  0  0  0
   12.9791  -44.4973   17.3796 C   0  0  0  0  0  0  0  0  0  0  0  0
   13.8560  -44.1365   16.3514 C   0  0  0  0  0  0  0  0  0  0  0  0
   14.0328  -44.9426   15.2590 C   0  0  0  0  0  0  0  0  0  0  0  0
   13.3080  -46.1125   15.2278 C   0  0  0  0  0  0  0  0  0  0  0  0
   12.4274  -46.4748   16.2561 C   0  0  0  0  0  0  0  0  0  0  0  0
   11.7047  -47.6807   16.1800 O   0  0  0  0  0  0  0  0  0  0  0  0
   11.8015  -48.2945   14.9100 C   0  0  0  0  0  0  0  0  0  0  0  0
   10.9779  -47.8225   13.9099 C   0  0  0  0  0  0  0  0  0  0  0  0
   11.0859  -48.4328   12.6545 C   0  0  0  0  0  0  0  0  0  0  0  0
   11.9826  -49.4570   12.4559 C   0  0  0  0  0  0  0  0  0  0  0  0
   12.7851  -49.8994   13.4859 C   0  0  0  0  0  0  0  0  0  0  0  0
   12.7032  -49.3188   14.7330 C   0  0  0  0  0  0  0  0  0  0  0  0
   12.0606  -50.0550   11.0922 C   0  0  0  0  0  0  0  0  0  0  0  0
   13.1650  -49.5617   10.2533 C   0  0  0  0  0  0  0  0  0  0  0  0
   14.1719  -48.6888   10.9119 C   0  0  0  0  0  0  0  0  0  0  0  0
   14.9104  -49.0042   11.8471 O   0  0  0  0  0  0  0  0  0  0  0  0
   14.3741  -47.3113   10.4621 N   0  0  0  0  0  0  0  0  0  0  0  0
   14.8481  -46.2813   11.3552 C   0  0  0  0  0  0  0  0  0  0  0  0
   13.8004  -45.4980   12.0164 C   0  0  0  0  0  0  0  0  0  0  0  0
   12.5552  -45.6916   11.8565 O   0  0  0  0  0  0  0  0  0  0  0  0
   14.1669  -44.4570   12.8903 N   0  0  0  0  0  0  0  0  0  0  0  0
   14.9384  -44.6677   14.1276 C   0  0  0  0  0  0  0  0  0  0  0  0
   15.8933  -43.5608   14.3347 C   0  0  0  0  0  0  0  0  0  0  0  0
   15.5831  -42.4064   14.7028 O   0  0  0  0  0  0  0  0  0  0  0  0
   17.3200  -43.7066   14.1189 N   0  0  0  0  0  0  0  0  0  0  0  0
   18.3461  -43.2834   15.0193 C   0  0  0  0  0  0  0  0  0  0  0  0
   19.1130  -42.1217   14.4410 C   0  0  0  0  0  0  0  0  0  0  0  0
   20.3338  -41.7747   14.9715 C   0  0  0  0  0  0  0  0  0  0  0  0
   20.9919  -40.7133   14.3988 C   0  0  0  0  0  0  0  0  0  0  0  0
   20.5115  -39.9787   13.3306 C   0  0  0  0  0  0  0  0  0  0  0  0
   19.2872  -40.3399   12.8099 C   0  0  0  0  0  0  0  0  0  0  0  0
   18.5896  -41.4171   13.3729 C   0  0  0  0  0  0  0  0  0  0  0  0
   21.2745  -38.9257   12.8410 O   0  0  0  0  0  0  0  0  0  0  0  0
   22.3140  -40.2477   14.8974 C   0  0  0  0  0  0  0  0  0  0  0  0
   22.4719  -39.8221   16.1860 C   0  0  0  0  0  0  0  0  0  0  0  0
   23.7548  -39.4001   16.5625 C   0  0  0  0  0  0  0  0  0  0  0  0
   24.7764  -39.4336   15.6298 C   0  0  0  0  0  0  0  0  0  0  0  0
   24.5708  -39.8744   14.3264 C   0  0  0  0  0  0  0  0  0  0  0  0
   23.3136  -40.2919   13.9451 C   0  0  0  0  0  0  0  0  0  0  0  0
   23.0187  -40.7494   12.6590 O   0  0  0  0  0  0  0  0  0  0  0  0
   26.0230  -39.0025   16.0657 O   0  0  0  0  0  0  0  0  0  0  0  0
   21.3618  -39.7564   17.1770 C   0  0  0  0  0  0  0  0  0  0  0  0
   21.2561  -40.9310   18.0132 N   0  0  0  0  0  0  0  0  0  0  0  0
   20.0749  -41.1604   18.7527 C   0  0  0  0  0  0  0  0  0  0  0  0
   19.9635  -40.3941   19.7808 O   0  0  0  0  0  0  0  0  0  0  0  0
   19.0032  -42.1378   18.4956 C   0  0  0  0  0  0  0  0  0  0  0  0
   18.0929  -42.1852   19.7526 C   0  0  0  0  0  0  0  0  0  0  0  0
   16.7036  -42.4917   19.4592 C   0  0  0  0  0  0  0  0  0  0  0  0
   16.2381  -43.7607   19.8108 C   0  0  0  0  0  0  0  0  0  0  0  0
   14.9644  -44.0809   19.4741 C   0  0  0  0  0  0  0  0  0  0  0  0
   14.2053  -43.1458   18.8092 C   0  0  0  0  0  0  0  0  0  0  0  0
   12.8836  -43.5809   18.4758 O   0  0  0  0  0  0  0  0  0  0  0  0
   14.6403  -41.8926   18.4598 C   0  0  0  0  0  0  0  0  0  0  0  0
   15.9329  -41.5639   18.8001 C   0  0  0  0  0  0  0  0  0  0  0  0
   14.3698  -45.6723   19.9142 Cl  0  0  0  0  0  0  0  0  0  0  0  0
   18.6275  -43.0707   20.6928 O   0  0  0  0  0  0  0  0  0  0  0  0
   18.2829  -41.9989   17.2743 N   0  0  0  0  0  0  0  0  0  0  0  0
   17.8790  -43.0369   16.3920 C   0  0  0  0  0  0  0  0  0  0  0  0
   17.0217  -43.8325   16.8398 O   0  0  0  0  0  0  0  0  0  0  0  0
   21.6327  -38.5153   18.0029 C   0  0  0  0  0  0  0  0  0  0  0  0
   21.7231  -37.4321   17.4153 O   0  0  0  0  0  0  0  0  0  0  0  0
   21.7791  -38.5612   19.3757 O   0  0  0  0  0  0  0  0  0  0  0  0
   15.6543  -45.2537   10.5309 C   0  0  0  0  0  0  0  0  0  0  0  0
   15.6763  -45.6415    9.1142 C   0  0  0  0  0  0  0  0  0  0  0  0
   16.6379  -46.2134    8.5498 O   0  0  0  0  0  0  0  0  0  0  0  0
   14.5372  -45.3536    8.3230 N   0  0  0  0  0  0  0  0  0  0  0  0
   12.6495  -48.9122    9.0537 N   0  0  0  0  0  0  0  0  0  0  0  0
   12.7810  -49.4897    7.7826 C   0  0  0  0  0  0  0  0  0  0  0  0
   13.6013  -48.9125    6.9804 O   0  0  0  0  0  0  0  0  0  0  0  0
   12.0885  -50.6702    7.2534 C   0  0  0  0  0  0  0  0  0  0  0  0
   11.2401  -51.3391    8.3253 C   0  0  0  0  0  0  0  0  0  0  0  0
   10.1755  -52.1719    7.7006 C   0  0  0  0  0  0  0  0  0  0  0  0
    9.6049  -51.3568    6.5327 C   0  0  0  0  0  0  0  0  0  0  0  0
    9.0626  -52.4103    8.6839 C   0  0  0  0  0  0  0  0  0  0  0  0
   13.0157  -51.5937    6.6720 N   0  0  0  0  0  0  0  0  0  0  0  0
   13.3970  -51.1173    5.3573 C   0  0  0  0  0  0  0  0  0  0  0  0
   10.8136  -50.0280   10.4603 O   0  0  0  0  0  0  0  0  0  0  0  0
    9.8379  -46.5218   14.1727 Cl  0  0  0  0  0  0  0  0  0  0  0  0
    7.2158  -44.0722   17.7262 C   0  0  0  0  0  0  0  0  0  0  0  0
    6.5872  -43.8886   16.4909 O   0  0  0  0  0  0  0  0  0  0  0  0
    7.6791  -47.6084   17.5518 O   0  0  0  0  0  0  0  0  0  0  0  0
    7.4366  -47.8446   20.1386 O   0  0  0  0  0  0  0  0  0  0  0  0
   12.5081  -45.4035   24.7199 C   0  0  0  0  0  0  0  0  0  0  0  0
   10.1367  -45.1678   24.7881 N   0  0  0  0  0  0  0  0  0  0  0  0
    9.7686  -47.6277   24.9232 O   0  0  0  0  0  0  0  0  0  0  0  0
  1  2  1  0
  2  3  1  0
  3  4  1  0
  4  5  1  0
  5  6  1  0
  6  7  1  0
  6  8  1  0
  8  9  1  0
  9 10  1  0
 10 11  1  0
 11 12  1  0
 12 13  1  0
 13 14  1  0
 14 15  1  0
 15 16  1  0
 16 17  1  0
 17 18  2  0
 18 19  1  0
 19 20  2  0
 20 21  1  0
 21 22  1  0
 22 23  1  0
 23 24  2  0
 24 25  1  0
 25 26  2  0
 26 27  1  0
 27 28  2  0
 26 29  1  0
 29 30  1  0
 30 31  1  0
 31 32  2  0
 31 33  1  0
 33 34  1  0
 34 35  1  0
 35 36  2  0
 35 37  1  0
 37 38  1  0
 38 39  1  0
 39 40  2  0
 39 41  1  0
 41 42  1  0
 42 43  1  0
 43 44  2  0
 44 45  1  0
 45 46  2  0
 46 47  1  0
 47 48  2  0
 46 49  1  0
 45 50  1  0
 50 51  1  0
 51 52  2  0
 52 53  1  0
 53 54  2  0
 54 55  1  0
 55 56  1  0
 53 57  1  0
 51 58  1  0
 58 59  1  0
 59 60  1  0
 60 61  2  0
 60 62  1  0
 62 63  1  0
 63 64  1  0
 64 65  2  0
 65 66  1  0
 66 67  2  0
 67 68  1  0
 67 69  1  0
 69 70  2  0
 66 71  1  0
 63 72  1  0
 62 73  1  0
 73 74  1  0
 74 75  2  0
 58 76  1  0
 76 77  2  0
 76 78  1  0
 34 79  1  0
 79 80  1  0
 80 81  2  0
 80 82  1  0
 30 83  1  0
 83 84  1  0
 84 85  2  0
 84 86  1  0
 86 87  1  0
 87 88  1  0
 88 89  1  0
 88 90  1  0
 86 91  1  0
 91 92  1  0
 29 93  1  0
 24 94  1  0
 12 95  1  0
 95 96  1  0
 11 97  1  0
 10 98  1  0
  4 99  1  0
  4100  1  0
  3101  1  0
  7  2  1  0
 70 64  1  0
 14  9  1  0
 21 16  2  0
 68 17  1  0
 38 19  1  0
 28 23  1  0
 74 42  1  0
 48 43  1  0
 55 50  2  0
M  END
$$$$
