
     RDKit          3D

101110  0  0  0  0  0  0  0  0999 V2000
   36.1300  -37.4235    1.9767 C   0  0  0  0  0  0  0  0  0  0  0  0
   36.6444  -38.6895    2.6670 C   0  0  0  0  0  0  0  0  0  0  0  0
   37.6323  -39.3239    1.7482 C   0  0  0  0  0  0  0  0  0  0  0  0
   37.9295  -40.7542    2.0720 C   0  0  0  0  0  0  0  0  0  0  0  0
   36.8655  -41.3918    2.9056 C   0  0  0  0  0  0  0  0  0  0  0  0
   35.5256  -40.7367    2.5333 C   0  0  0  0  0  0  0  0  0  0  0  0
   35.5709  -39.4449    3.0332 O   0  0  0  0  0  0  0  0  0  0  0  0
   34.5819  -41.4570    3.2097 O   0  0  0  0  0  0  0  0  0  0  0  0
   33.3253  -40.8956    3.3545 C   0  0  0  0  0  0  0  0  0  0  0  0
   32.2715  -41.8675    2.8092 C   0  0  0  0  0  0  0  0  0  0  0  0
   31.1660  -42.0764    3.7936 C   0  0  0  0  0  0  0  0  0  0  0  0
   31.5925  -42.4099    5.1655 C   0  0  0  0  0  0  0  0  0  0  0  0
   32.8037  -41.8766    5.4639 O   0  0  0  0  0  0  0  0  0  0  0  0
   33.1214  -40.6704    4.8108 C   0  0  0  0  0  0  0  0  0  0  0  0
   34.1983  -40.1185    5.4714 O   0  0  0  0  0  0  0  0  0  0  0  0
   34.3164  -39.8223    6.7962 C   0  0  0  0  0  0  0  0  0  0  0  0
   35.5456  -40.0197    7.3855 C   0  0  0  0  0  0  0  0  0  0  0  0
   35.7854  -39.7567    8.7381 C   0  0  0  0  0  0  0  0  0  0  0  0
   34.7925  -39.2801    9.5514 C   0  0  0  0  0  0  0  0  0  0  0  0
   33.5601  -39.0780    8.9723 C   0  0  0  0  0  0  0  0  0  0  0  0
   33.3175  -39.3429    7.6177 C   0  0  0  0  0  0  0  0  0  0  0  0
   32.0395  -39.1231    7.0692 O   0  0  0  0  0  0  0  0  0  0  0  0
   31.0616  -38.8582    8.0554 C   0  0  0  0  0  0  0  0  0  0  0  0
   30.5130  -39.9379    8.7148 C   0  0  0  0  0  0  0  0  0  0  0  0
   29.5503  -39.6645    9.6938 C   0  0  0  0  0  0  0  0  0  0  0  0
   29.1860  -38.3658    9.9649 C   0  0  0  0  0  0  0  0  0  0  0  0
   29.7587  -37.3163    9.2786 C   0  0  0  0  0  0  0  0  0  0  0  0
   30.7098  -37.5524    8.3098 C   0  0  0  0  0  0  0  0  0  0  0  0
   28.1665  -38.1401   11.0294 C   0  0  0  0  0  0  0  0  0  0  0  0
   28.7069  -37.7613   12.3452 C   0  0  0  0  0  0  0  0  0  0  0  0
   30.1612  -37.4616   12.4141 C   0  0  0  0  0  0  0  0  0  0  0  0
   30.7484  -36.5566   11.8177 O   0  0  0  0  0  0  0  0  0  0  0  0
   31.0502  -38.2654   13.2533 N   0  0  0  0  0  0  0  0  0  0  0  0
   32.4497  -38.4291   12.9401 C   0  0  0  0  0  0  0  0  0  0  0  0
   32.7758  -39.6129   12.1397 C   0  0  0  0  0  0  0  0  0  0  0  0
   31.9172  -40.4483   11.7170 O   0  0  0  0  0  0  0  0  0  0  0  0
   34.1185  -39.8673   11.8022 N   0  0  0  0  0  0  0  0  0  0  0  0
   34.9377  -38.9568   10.9833 C   0  0  0  0  0  0  0  0  0  0  0  0
   36.3251  -38.9180   11.4866 C   0  0  0  0  0  0  0  0  0  0  0  0
   37.1654  -39.8332   11.3427 O   0  0  0  0  0  0  0  0  0  0  0  0
   36.8600  -37.7883   12.2222 N   0  0  0  0  0  0  0  0  0  0  0  0
   38.1121  -37.1472   11.9693 C   0  0  0  0  0  0  0  0  0  0  0  0
   39.0790  -37.4093   13.0954 C   0  0  0  0  0  0  0  0  0  0  0  0
   40.2065  -36.6318   13.2251 C   0  0  0  0  0  0  0  0  0  0  0  0
   41.0475  -36.9103   14.2753 C   0  0  0  0  0  0  0  0  0  0  0  0
   40.8345  -37.9119   15.2043 C   0  0  0  0  0  0  0  0  0  0  0  0
   39.6996  -38.6811   15.0609 C   0  0  0  0  0  0  0  0  0  0  0  0
   38.8222  -38.4237   13.9988 C   0  0  0  0  0  0  0  0  0  0  0  0
   41.7621  -38.0930   16.2228 O   0  0  0  0  0  0  0  0  0  0  0  0
   42.2980  -36.1381   14.5058 C   0  0  0  0  0  0  0  0  0  0  0  0
   43.2810  -36.0882   13.5582 C   0  0  0  0  0  0  0  0  0  0  0  0
   44.4235  -35.3368   13.8676 C   0  0  0  0  0  0  0  0  0  0  0  0
   44.4984  -34.6970   15.0922 C   0  0  0  0  0  0  0  0  0  0  0  0
   43.4730  -34.7752   16.0291 C   0  0  0  0  0  0  0  0  0  0  0  0
   42.3449  -35.5110   15.7357 C   0  0  0  0  0  0  0  0  0  0  0  0
   41.2691  -35.6428   16.6163 O   0  0  0  0  0  0  0  0  0  0  0  0
   45.6561  -33.9692   15.3373 O   0  0  0  0  0  0  0  0  0  0  0  0
   43.2103  -36.8058   12.2549 C   0  0  0  0  0  0  0  0  0  0  0  0
   42.6957  -35.9985   11.1716 N   0  0  0  0  0  0  0  0  0  0  0  0
   42.2596  -36.6200    9.9807 C   0  0  0  0  0  0  0  0  0  0  0  0
   43.2280  -37.0322    9.2399 O   0  0  0  0  0  0  0  0  0  0  0  0
   40.8818  -36.8376    9.5072 C   0  0  0  0  0  0  0  0  0  0  0  0
   40.9559  -37.2904    8.0238 C   0  0  0  0  0  0  0  0  0  0  0  0
   39.8798  -38.1826    7.6287 C   0  0  0  0  0  0  0  0  0  0  0  0
   38.8871  -37.6615    6.7958 C   0  0  0  0  0  0  0  0  0  0  0  0
   37.8410  -38.4650    6.4823 C   0  0  0  0  0  0  0  0  0  0  0  0
   37.8140  -39.7403    6.9978 C   0  0  0  0  0  0  0  0  0  0  0  0
   36.6619  -40.5056    6.6314 O   0  0  0  0  0  0  0  0  0  0  0  0
   38.7805  -40.2738    7.8121 C   0  0  0  0  0  0  0  0  0  0  0  0
   39.8442  -39.4610    8.1325 C   0  0  0  0  0  0  0  0  0  0  0  0
   36.5901  -37.8198    5.4340 Cl  0  0  0  0  0  0  0  0  0  0  0  0
   41.0294  -36.1717    7.1890 O   0  0  0  0  0  0  0  0  0  0  0  0
   40.0448  -37.6610   10.3141 N   0  0  0  0  0  0  0  0  0  0  0  0
   38.6809  -37.4378   10.6445 C   0  0  0  0  0  0  0  0  0  0  0  0
   37.8704  -37.4993    9.6917 O   0  0  0  0  0  0  0  0  0  0  0  0
   44.6255  -37.2681   11.9727 C   0  0  0  0  0  0  0  0  0  0  0  0
   45.1174  -38.1256   12.7139 O   0  0  0  0  0  0  0  0  0  0  0  0
   45.3701  -36.7640   10.9241 O   0  0  0  0  0  0  0  0  0  0  0  0
   33.2270  -38.6147   14.2618 C   0  0  0  0  0  0  0  0  0  0  0  0
   33.2315  -37.3629   15.0303 C   0  0  0  0  0  0  0  0  0  0  0  0
   33.6876  -37.2445   16.1916 O   0  0  0  0  0  0  0  0  0  0  0  0
   32.6849  -36.2040   14.4265 N   0  0  0  0  0  0  0  0  0  0  0  0
   28.3538  -38.7554   13.3520 N   0  0  0  0  0  0  0  0  0  0  0  0
   27.0509  -38.8681   13.8583 C   0  0  0  0  0  0  0  0  0  0  0  0
   26.1301  -38.2725   13.1898 O   0  0  0  0  0  0  0  0  0  0  0  0
   26.6115  -39.5779   15.0651 C   0  0  0  0  0  0  0  0  0  0  0  0
   25.1806  -40.0763   14.9220 C   0  0  0  0  0  0  0  0  0  0  0  0
   24.7102  -40.6792   16.1997 C   0  0  0  0  0  0  0  0  0  0  0  0
   25.3536  -42.0687   16.2960 C   0  0  0  0  0  0  0  0  0  0  0  0
   23.2178  -40.8632   16.1653 C   0  0  0  0  0  0  0  0  0  0  0  0
   26.7630  -38.7578   16.2290 N   0  0  0  0  0  0  0  0  0  0  0  0
   25.4542  -38.3244   16.6764 C   0  0  0  0  0  0  0  0  0  0  0  0
   27.2480  -39.1933   11.0762 O   0  0  0  0  0  0  0  0  0  0  0  0
   30.9800  -41.5862    8.3607 Cl  0  0  0  0  0  0  0  0  0  0  0  0
   31.5374  -43.9174    5.3389 C   0  0  0  0  0  0  0  0  0  0  0  0
   30.7097  -44.1498    6.4414 O   0  0  0  0  0  0  0  0  0  0  0  0
   30.4051  -40.8807    3.8401 O   0  0  0  0  0  0  0  0  0  0  0  0
   31.6996  -41.3971    1.6347 O   0  0  0  0  0  0  0  0  0  0  0  0
   39.3011  -40.9086    2.7242 C   0  0  0  0  0  0  0  0  0  0  0  0
   38.0042  -41.4798    0.8070 N   0  0  0  0  0  0  0  0  0  0  0  0
   37.3540  -39.1127    0.3839 O   0  0  0  0  0  0  0  0  0  0  0  0
  1  2  1  0
  2  3  1  0
  3  4  1  0
  4  5  1  0
  5  6  1  0
  6  7  1  0
  6  8  1  0
  8  9  1  0
  9 10  1  0
 10 11  1  0
 11 12  1  0
 12 13  1  0
 13 14  1  0
 14 15  1  0
 15 16  1  0
 16 17  1  0
 17 18  2  0
 18 19  1  0
 19 20  2  0
 20 21  1  0
 21 22  1  0
 22 23  1  0
 23 24  2  0
 24 25  1  0
 25 26  2  0
 26 27  1  0
 27 28  2  0
 26 29  1  0
 29 30  1  0
 30 31  1  0
 31 32  2  0
 31 33  1  0
 33 34  1  0
 34 35  1  0
 35 36  2  0
 35 37  1  0
 37 38  1  0
 38 39  1  0
 39 40  2  0
 39 41  1  0
 41 42  1  0
 42 43  1  0
 43 44  2  0
 44 45  1  0
 45 46  2  0
 46 47  1  0
 47 48  2  0
 46 49  1  0
 45 50  1  0
 50 51  1  0
 51 52  2  0
 52 53  1  0
 53 54  2  0
 54 55  1  0
 55 56  1  0
 53 57  1  0
 51 58  1  0
 58 59  1  0
 59 60  1  0
 60 61  2  0
 60 62  1  0
 62 63  1  0
 63 64  1  0
 64 65  2  0
 65 66  1  0
 66 67  2  0
 67 68  1  0
 67 69  1  0
 69 70  2  0
 66 71  1  0
 63 72  1  0
 62 73  1  0
 73 74  1  0
 74 75  2  0
 58 76  1  0
 76 77  2  0
 76 78  1  0
 34 79  1  0
 79 80  1  0
 80 81  2  0
 80 82  1  0
 30 83  1  0
 83 84  1  0
 84 85  2  0
 84 86  1  0
 86 87  1  0
 87 88  1  0
 88 89  1  0
 88 90  1  0
 86 91  1  0
 91 92  1  0
 29 93  1  0
 24 94  1  0
 12 95  1  0
 95 96  1  0
 11 97  1  0
 10 98  1  0
  4 99  1  0
  4100  1  0
  3101  1  0
  7  2  1  0
 70 64  1  0
 14  9  1  0
 21 16  2  0
 68 17  1  0
 38 19  1  0
 28 23  1  0
 74 42  1  0
 48 43  1  0
 55 50  2  0
M  END
$$$$
