
     RDKit          3D

101110  0  0  0  0  0  0  0  0999 V2000
    5.3724  -46.7434   33.9593 C   0  0  0  0  0  0  0  0  0  0  0  0
    5.9753  -47.5982   35.0772 C   0  0  0  0  0  0  0  0  0  0  0  0
    6.0912  -46.7304   36.2839 C   0  0  0  0  0  0  0  0  0  0  0  0
    7.0150  -47.2683   37.3308 C   0  0  0  0  0  0  0  0  0  0  0  0
    7.9807  -48.2724   36.7896 C   0  0  0  0  0  0  0  0  0  0  0  0
    8.2795  -47.8930   35.3302 C   0  0  0  0  0  0  0  0  0  0  0  0
    7.1250  -48.1633   34.6126 O   0  0  0  0  0  0  0  0  0  0  0  0
    9.2719  -48.7477   34.9407 O   0  0  0  0  0  0  0  0  0  0  0  0
    9.9638  -48.4449   33.7810 C   0  0  0  0  0  0  0  0  0  0  0  0
   11.4470  -48.2434   34.1153 C   0  0  0  0  0  0  0  0  0  0  0  0
   12.3213  -49.0470   33.2073 C   0  0  0  0  0  0  0  0  0  0  0  0
   11.9565  -50.4696   33.0705 C   0  0  0  0  0  0  0  0  0  0  0  0
   10.6258  -50.6707   33.2410 O   0  0  0  0  0  0  0  0  0  0  0  0
    9.7898  -49.6026   32.8630 C   0  0  0  0  0  0  0  0  0  0  0  0
    8.5050  -50.0962   32.7848 O   0  0  0  0  0  0  0  0  0  0  0  0
    8.1034  -51.3692   32.5111 C   0  0  0  0  0  0  0  0  0  0  0  0
    6.9001  -51.7842   33.0375 C   0  0  0  0  0  0  0  0  0  0  0  0
    6.3880  -53.0690   32.8294 C   0  0  0  0  0  0  0  0  0  0  0  0
    7.0700  -53.9877   32.0776 C   0  0  0  0  0  0  0  0  0  0  0  0
    8.2734  -53.5829   31.5455 C   0  0  0  0  0  0  0  0  0  0  0  0
    8.7891  -52.2966   31.7545 C   0  0  0  0  0  0  0  0  0  0  0  0
   10.0260  -51.9276   31.1921 O   0  0  0  0  0  0  0  0  0  0  0  0
   10.7253  -53.0276   30.6445 C   0  0  0  0  0  0  0  0  0  0  0  0
   11.4406  -53.8244   31.5134 C   0  0  0  0  0  0  0  0  0  0  0  0
   12.1243  -54.9145   30.9620 C   0  0  0  0  0  0  0  0  0  0  0  0
   12.0681  -55.1563   29.6089 C   0  0  0  0  0  0  0  0  0  0  0  0
   11.3424  -54.3314   28.7761 C   0  0  0  0  0  0  0  0  0  0  0  0
   10.6578  -53.2506   29.2883 C   0  0  0  0  0  0  0  0  0  0  0  0
   12.8053  -56.3421   29.0857 C   0  0  0  0  0  0  0  0  0  0  0  0
   11.9819  -57.5397   28.8522 C   0  0  0  0  0  0  0  0  0  0  0  0
   10.5094  -57.3778   28.9746 C   0  0  0  0  0  0  0  0  0  0  0  0
    9.7958  -56.6484   28.2830 O   0  0  0  0  0  0  0  0  0  0  0  0
    9.7572  -58.1260   29.9821 N   0  0  0  0  0  0  0  0  0  0  0  0
    8.5247  -57.6231   30.5401 C   0  0  0  0  0  0  0  0  0  0  0  0
    8.6684  -56.8572   31.7816 C   0  0  0  0  0  0  0  0  0  0  0  0
    9.7798  -56.6156   32.3474 O   0  0  0  0  0  0  0  0  0  0  0  0
    7.5186  -56.3440   32.4110 N   0  0  0  0  0  0  0  0  0  0  0  0
    6.6185  -55.3608   31.7835 C   0  0  0  0  0  0  0  0  0  0  0  0
    5.2134  -55.6535   32.1297 C   0  0  0  0  0  0  0  0  0  0  0  0
    4.6924  -55.4448   33.2474 O   0  0  0  0  0  0  0  0  0  0  0  0
    4.2785  -56.2334   31.1846 N   0  0  0  0  0  0  0  0  0  0  0  0
    2.9538  -55.7624   30.9280 C   0  0  0  0  0  0  0  0  0  0  0  0
    1.9329  -56.7496   31.4330 C   0  0  0  0  0  0  0  0  0  0  0  0
    0.6286  -56.6663   31.0038 C   0  0  0  0  0  0  0  0  0  0  0  0
   -0.2564  -57.5979   31.4903 C   0  0  0  0  0  0  0  0  0  0  0  0
    0.0769  -58.6072   32.3744 C   0  0  0  0  0  0  0  0  0  0  0  0
    1.3882  -58.6776   32.7939 C   0  0  0  0  0  0  0  0  0  0  0  0
    2.3154  -57.7408   32.3176 C   0  0  0  0  0  0  0  0  0  0  0  0
   -0.9122  -59.4889   32.7925 O   0  0  0  0  0  0  0  0  0  0  0  0
   -1.6918  -57.5965   31.0991 C   0  0  0  0  0  0  0  0  0  0  0  0
   -2.4890  -56.5146   31.3456 C   0  0  0  0  0  0  0  0  0  0  0  0
   -3.8286  -56.6083   30.9424 C   0  0  0  0  0  0  0  0  0  0  0  0
   -4.2685  -57.7677   30.3286 C   0  0  0  0  0  0  0  0  0  0  0  0
   -3.4216  -58.8468   30.0975 C   0  0  0  0  0  0  0  0  0  0  0  0
   -2.1024  -58.7660   30.4894 C   0  0  0  0  0  0  0  0  0  0  0  0
   -1.1840  -59.8003   30.2964 O   0  0  0  0  0  0  0  0  0  0  0  0
   -5.6058  -57.7969   29.9536 O   0  0  0  0  0  0  0  0  0  0  0  0
   -2.0191  -55.2816   32.0365 C   0  0  0  0  0  0  0  0  0  0  0  0
   -1.5847  -54.2377   31.1357 N   0  0  0  0  0  0  0  0  0  0  0  0
   -0.8126  -53.1629   31.6293 C   0  0  0  0  0  0  0  0  0  0  0  0
   -1.5007  -52.3156   32.3113 O   0  0  0  0  0  0  0  0  0  0  0  0
    0.6281  -52.9092   31.4568 C   0  0  0  0  0  0  0  0  0  0  0  0
    0.9156  -51.4612   31.9379 C   0  0  0  0  0  0  0  0  0  0  0  0
    2.2446  -51.2818   32.4963 C   0  0  0  0  0  0  0  0  0  0  0  0
    3.1723  -50.5721   31.7305 C   0  0  0  0  0  0  0  0  0  0  0  0
    4.4355  -50.4637   32.2109 C   0  0  0  0  0  0  0  0  0  0  0  0
    4.7330  -51.0542   33.4174 C   0  0  0  0  0  0  0  0  0  0  0  0
    6.0944  -50.9067   33.8321 O   0  0  0  0  0  0  0  0  0  0  0  0
    3.8364  -51.7502   34.1881 C   0  0  0  0  0  0  0  0  0  0  0  0
    2.5529  -51.8623   33.7036 C   0  0  0  0  0  0  0  0  0  0  0  0
    5.6074  -49.5713   31.2569 Cl  0  0  0  0  0  0  0  0  0  0  0  0
    0.6675  -50.5580   30.9003 O   0  0  0  0  0  0  0  0  0  0  0  0
    1.5229  -53.8779   31.9959 N   0  0  0  0  0  0  0  0  0  0  0  0
    2.7025  -54.3890   31.3906 C   0  0  0  0  0  0  0  0  0  0  0  0
    3.6374  -53.5699   31.2371 O   0  0  0  0  0  0  0  0  0  0  0  0
   -3.1888  -54.8252   32.8848 C   0  0  0  0  0  0  0  0  0  0  0  0
   -3.3608  -55.3681   33.9813 O   0  0  0  0  0  0  0  0  0  0  0  0
   -4.0559  -53.8326   32.4713 O   0  0  0  0  0  0  0  0  0  0  0  0
    7.6319  -58.8264   30.9148 C   0  0  0  0  0  0  0  0  0  0  0  0
    7.7980  -59.9086   29.9354 C   0  0  0  0  0  0  0  0  0  0  0  0
    7.1802  -60.9983   29.9702 O   0  0  0  0  0  0  0  0  0  0  0  0
    8.7175  -59.7173   28.8751 N   0  0  0  0  0  0  0  0  0  0  0  0
   12.4338  -58.6458   29.6882 N   0  0  0  0  0  0  0  0  0  0  0  0
   12.1979  -59.9835   29.3399 C   0  0  0  0  0  0  0  0  0  0  0  0
   11.3618  -60.1812   28.3852 O   0  0  0  0  0  0  0  0  0  0  0  0
   12.7845  -61.1875   29.9394 C   0  0  0  0  0  0  0  0  0  0  0  0
   12.5534  -62.4095   29.0622 C   0  0  0  0  0  0  0  0  0  0  0  0
   13.1922  -63.6112   29.6664 C   0  0  0  0  0  0  0  0  0  0  0  0
   14.7016  -63.3383   29.7022 C   0  0  0  0  0  0  0  0  0  0  0  0
   12.9614  -64.8134   28.7925 C   0  0  0  0  0  0  0  0  0  0  0  0
   12.2871  -61.3973   31.2657 N   0  0  0  0  0  0  0  0  0  0  0  0
   10.9409  -61.9288   31.1878 C   0  0  0  0  0  0  0  0  0  0  0  0
   13.9601  -56.5860   29.8353 O   0  0  0  0  0  0  0  0  0  0  0  0
   11.5093  -53.5070   33.2325 Cl  0  0  0  0  0  0  0  0  0  0  0  0
   12.8167  -51.2855   34.0191 C   0  0  0  0  0  0  0  0  0  0  0  0
   14.0202  -51.5181   33.3467 O   0  0  0  0  0  0  0  0  0  0  0  0
   12.2690  -48.4466   31.9238 O   0  0  0  0  0  0  0  0  0  0  0  0
   11.8251  -46.9135   33.9874 O   0  0  0  0  0  0  0  0  0  0  0  0
    6.2451  -47.8361   38.5205 C   0  0  0  0  0  0  0  0  0  0  0  0
    7.7836  -46.1418   37.8526 N   0  0  0  0  0  0  0  0  0  0  0  0
    6.3241  -45.3738   35.9859 O   0  0  0  0  0  0  0  0  0  0  0  0
  1  2  1  0
  2  3  1  0
  3  4  1  0
  4  5  1  0
  5  6  1  0
  6  7  1  0
  6  8  1  0
  8  9  1  0
  9 10  1  0
 10 11  1  0
 11 12  1  0
 12 13  1  0
 13 14  1  0
 14 15  1  0
 15 16  1  0
 16 17  1  0
 17 18  2  0
 18 19  1  0
 19 20  2  0
 20 21  1  0
 21 22  1  0
 22 23  1  0
 23 24  2  0
 24 25  1  0
 25 26  2  0
 26 27  1  0
 27 28  2  0
 26 29  1  0
 29 30  1  0
 30 31  1  0
 31 32  2  0
 31 33  1  0
 33 34  1  0
 34 35  1  0
 35 36  2  0
 35 37  1  0
 37 38  1  0
 38 39  1  0
 39 40  2  0
 39 41  1  0
 41 42  1  0
 42 43  1  0
 43 44  2  0
 44 45  1  0
 45 46  2  0
 46 47  1  0
 47 48  2  0
 46 49  1  0
 45 50  1  0
 50 51  1  0
 51 52  2  0
 52 53  1  0
 53 54  2  0
 54 55  1  0
 55 56  1  0
 53 57  1  0
 51 58  1  0
 58 59  1  0
 59 60  1  0
 60 61  2  0
 60 62  1  0
 62 63  1  0
 63 64  1  0
 64 65  2  0
 65 66  1  0
 66 67  2  0
 67 68  1  0
 67 69  1  0
 69 70  2  0
 66 71  1  0
 63 72  1  0
 62 73  1  0
 73 74  1  0
 74 75  2  0
 58 76  1  0
 76 77  2  0
 76 78  1  0
 34 79  1  0
 79 80  1  0
 80 81  2  0
 80 82  1  0
 30 83  1  0
 83 84  1  0
 84 85  2  0
 84 86  1  0
 86 87  1  0
 87 88  1  0
 88 89  1  0
 88 90  1  0
 86 91  1  0
 91 92  1  0
 29 93  1  0
 24 94  1  0
 12 95  1  0
 95 96  1  0
 11 97  1  0
 10 98  1  0
  4 99  1  0
  4100  1  0
  3101  1  0
  7  2  1  0
 70 64  1  0
 14  9  1  0
 21 16  2  0
 68 17  1  0
 38 19  1  0
 28 23  1  0
 74 42  1  0
 48 43  1  0
 55 50  2  0
M  END
$$$$
