
     RDKit          3D

101110  0  0  0  0  0  0  0  0999 V2000
    1.9292  -57.0502   86.1369 C   0  0  0  0  0  0  0  0  0  0  0  0
    1.4903  -57.6532   84.7999 C   0  0  0  0  0  0  0  0  0  0  0  0
    2.0190  -59.0462   84.7482 C   0  0  0  0  0  0  0  0  0  0  0  0
    2.0352  -59.6378   83.3740 C   0  0  0  0  0  0  0  0  0  0  0  0
    1.9875  -58.6021   82.2977 C   0  0  0  0  0  0  0  0  0  0  0  0
    2.7019  -57.3474   82.8253 C   0  0  0  0  0  0  0  0  0  0  0  0
    1.8775  -56.8104   83.8013 O   0  0  0  0  0  0  0  0  0  0  0  0
    2.7587  -56.4989   81.7557 O   0  0  0  0  0  0  0  0  0  0  0  0
    3.9786  -55.9161   81.4605 C   0  0  0  0  0  0  0  0  0  0  0  0
    4.0687  -54.5520   82.1557 C   0  0  0  0  0  0  0  0  0  0  0  0
    5.3474  -54.4155   82.9179 C   0  0  0  0  0  0  0  0  0  0  0  0
    5.6714  -55.5367   83.8197 C   0  0  0  0  0  0  0  0  0  0  0  0
    5.1576  -56.7106   83.3743 O   0  0  0  0  0  0  0  0  0  0  0  0
    5.0289  -56.8340   81.9776 C   0  0  0  0  0  0  0  0  0  0  0  0
    4.8230  -58.1691   81.7019 O   0  0  0  0  0  0  0  0  0  0  0  0
    5.6751  -59.2142   81.8979 C   0  0  0  0  0  0  0  0  0  0  0  0
    6.7721  -58.9988   82.7026 C   0  0  0  0  0  0  0  0  0  0  0  0
    7.7180  -59.9934   82.9716 C   0  0  0  0  0  0  0  0  0  0  0  0
    7.5928  -61.2489   82.4403 C   0  0  0  0  0  0  0  0  0  0  0  0
    6.4992  -61.4755   81.6355 C   0  0  0  0  0  0  0  0  0  0  0  0
    5.5515  -60.4796   81.3631 C   0  0  0  0  0  0  0  0  0  0  0  0
    4.4495  -60.7566   80.5317 O   0  0  0  0  0  0  0  0  0  0  0  0
    4.5651  -62.0010   79.8707 C   0  0  0  0  0  0  0  0  0  0  0  0
    5.3428  -62.0483   78.7329 C   0  0  0  0  0  0  0  0  0  0  0  0
    5.4557  -63.2865   78.0894 C   0  0  0  0  0  0  0  0  0  0  0  0
    4.8078  -64.3911   78.5919 C   0  0  0  0  0  0  0  0  0  0  0  0
    4.0377  -64.2975   79.7315 C   0  0  0  0  0  0  0  0  0  0  0  0
    3.9072  -63.0932   80.3884 C   0  0  0  0  0  0  0  0  0  0  0  0
    4.9805  -65.6840   77.8693 C   0  0  0  0  0  0  0  0  0  0  0  0
    5.9797  -66.5971   78.4477 C   0  0  0  0  0  0  0  0  0  0  0  0
    6.5503  -66.2209   79.7677 C   0  0  0  0  0  0  0  0  0  0  0  0
    5.9264  -66.0984   80.8238 O   0  0  0  0  0  0  0  0  0  0  0  0
    7.9826  -65.9618   79.9155 N   0  0  0  0  0  0  0  0  0  0  0  0
    8.4938  -65.0698   80.9286 C   0  0  0  0  0  0  0  0  0  0  0  0
    8.6846  -63.6814   80.4993 C   0  0  0  0  0  0  0  0  0  0  0  0
    8.4149  -63.2501   79.3353 O   0  0  0  0  0  0  0  0  0  0  0  0
    9.1989  -62.7425   81.4134 N   0  0  0  0  0  0  0  0  0  0  0  0
    8.5203  -62.3731   82.6679 C   0  0  0  0  0  0  0  0  0  0  0  0
    9.5067  -62.1721   83.7478 C   0  0  0  0  0  0  0  0  0  0  0  0
   10.2687  -61.1852   83.8477 O   0  0  0  0  0  0  0  0  0  0  0  0
    9.6980  -63.1279   84.8217 N   0  0  0  0  0  0  0  0  0  0  0  0
    9.7665  -62.8134   86.2142 C   0  0  0  0  0  0  0  0  0  0  0  0
   11.1603  -63.0407   86.7411 C   0  0  0  0  0  0  0  0  0  0  0  0
   11.3748  -63.1235   88.0974 C   0  0  0  0  0  0  0  0  0  0  0  0
   12.6640  -63.3404   88.5201 C   0  0  0  0  0  0  0  0  0  0  0  0
   13.7507  -63.4822   87.6772 C   0  0  0  0  0  0  0  0  0  0  0  0
   13.5186  -63.3977   86.3209 C   0  0  0  0  0  0  0  0  0  0  0  0
   12.2149  -63.1751   85.8574 C   0  0  0  0  0  0  0  0  0  0  0  0
   15.0069  -63.6988   88.2300 O   0  0  0  0  0  0  0  0  0  0  0  0
   13.0108  -63.4393   89.9634 C   0  0  0  0  0  0  0  0  0  0  0  0
   12.7622  -62.4052   90.8210 C   0  0  0  0  0  0  0  0  0  0  0  0
   13.1262  -62.5912   92.1622 C   0  0  0  0  0  0  0  0  0  0  0  0
   13.7082  -63.7873   92.5432 C   0  0  0  0  0  0  0  0  0  0  0  0
   13.9442  -64.8148   91.6355 C   0  0  0  0  0  0  0  0  0  0  0  0
   13.5902  -64.6432   90.3143 C   0  0  0  0  0  0  0  0  0  0  0  0
   13.7901  -65.6208   89.3373 O   0  0  0  0  0  0  0  0  0  0  0  0
   14.0454  -63.9084   93.8854 O   0  0  0  0  0  0  0  0  0  0  0  0
   12.1659  -61.1069   90.3999 C   0  0  0  0  0  0  0  0  0  0  0  0
   10.7307  -61.0441   90.5622 N   0  0  0  0  0  0  0  0  0  0  0  0
    9.9954  -60.0313   89.9077 C   0  0  0  0  0  0  0  0  0  0  0  0
   10.1279  -58.8742   90.4554 O   0  0  0  0  0  0  0  0  0  0  0  0
    9.1275  -60.1437   88.7228 C   0  0  0  0  0  0  0  0  0  0  0  0
    8.3322  -58.8168   88.5899 C   0  0  0  0  0  0  0  0  0  0  0  0
    8.0105  -58.4608   87.2188 C   0  0  0  0  0  0  0  0  0  0  0  0
    6.6810  -58.6004   86.8144 C   0  0  0  0  0  0  0  0  0  0  0  0
    6.3859  -58.3411   85.5168 C   0  0  0  0  0  0  0  0  0  0  0  0
    7.4042  -57.9576   84.6749 C   0  0  0  0  0  0  0  0  0  0  0  0
    7.0020  -57.7279   83.3212 O   0  0  0  0  0  0  0  0  0  0  0  0
    8.7147  -57.8086   85.0522 C   0  0  0  0  0  0  0  0  0  0  0  0
    9.0181  -58.0710   86.3690 C   0  0  0  0  0  0  0  0  0  0  0  0
    4.7173  -58.5111   85.0001 Cl  0  0  0  0  0  0  0  0  0  0  0  0
    7.1874  -58.8671   89.3904 O   0  0  0  0  0  0  0  0  0  0  0  0
    9.7441  -60.5635   87.5091 N   0  0  0  0  0  0  0  0  0  0  0  0
    9.2310  -61.4878   86.5595 C   0  0  0  0  0  0  0  0  0  0  0  0
    8.2021  -61.1253   85.9443 O   0  0  0  0  0  0  0  0  0  0  0  0
   12.8614  -60.0538   91.2387 C   0  0  0  0  0  0  0  0  0  0  0  0
   13.7008  -60.4272   92.0649 O   0  0  0  0  0  0  0  0  0  0  0  0
   12.5862  -58.7066   91.1066 O   0  0  0  0  0  0  0  0  0  0  0  0
    9.9000  -65.5562   81.3427 C   0  0  0  0  0  0  0  0  0  0  0  0
   10.7945  -64.4099   81.5518 C   0  0  0  0  0  0  0  0  0  0  0  0
   11.9232  -64.4796   82.0919 O   0  0  0  0  0  0  0  0  0  0  0  0
   10.3608  -63.1335   81.1170 N   0  0  0  0  0  0  0  0  0  0  0  0
    7.0533  -66.8551   77.4950 N   0  0  0  0  0  0  0  0  0  0  0  0
    8.4037  -66.8184   77.8711 C   0  0  0  0  0  0  0  0  0  0  0  0
    9.2580  -67.0286   76.9354 O   0  0  0  0  0  0  0  0  0  0  0  0
    8.9607  -66.5769   79.2070 C   0  0  0  0  0  0  0  0  0  0  0  0
    9.2945  -65.1058   79.4080 C   0  0  0  0  0  0  0  0  0  0  0  0
    8.0818  -64.2655   79.2061 C   0  0  0  0  0  0  0  0  0  0  0  0
    7.8267  -63.5325   80.5295 C   0  0  0  0  0  0  0  0  0  0  0  0
    6.8897  -65.1384   78.9250 C   0  0  0  0  0  0  0  0  0  0  0  0
   10.1025  -67.4072   79.4468 N   0  0  0  0  0  0  0  0  0  0  0  0
   10.3333  -68.2419   78.2847 C   0  0  0  0  0  0  0  0  0  0  0  0
    5.1326  -65.4746   76.4953 O   0  0  0  0  0  0  0  0  0  0  0  0
    6.1602  -60.6374   78.0992 Cl  0  0  0  0  0  0  0  0  0  0  0  0
    5.2227  -55.1759   85.2247 C   0  0  0  0  0  0  0  0  0  0  0  0
    5.5781  -56.2590   86.0342 O   0  0  0  0  0  0  0  0  0  0  0  0
    6.3957  -54.2853   81.9720 O   0  0  0  0  0  0  0  0  0  0  0  0
    4.0147  -53.5070   81.2430 O   0  0  0  0  0  0  0  0  0  0  0  0
    0.9219  -60.6664   83.1927 C   0  0  0  0  0  0  0  0  0  0  0  0
    3.2877  -60.3750   83.2328 N   0  0  0  0  0  0  0  0  0  0  0  0
    3.2355  -59.2163   85.4373 O   0  0  0  0  0  0  0  0  0  0  0  0
  1  2  1  0
  2  3  1  0
  3  4  1  0
  4  5  1  0
  5  6  1  0
  6  7  1  0
  6  8  1  0
  8  9  1  0
  9 10  1  0
 10 11  1  0
 11 12  1  0
 12 13  1  0
 13 14  1  0
 14 15  1  0
 15 16  1  0
 16 17  1  0
 17 18  2  0
 18 19  1  0
 19 20  2  0
 20 21  1  0
 21 22  1  0
 22 23  1  0
 23 24  2  0
 24 25  1  0
 25 26  2  0
 26 27  1  0
 27 28  2  0
 26 29  1  0
 29 30  1  0
 30 31  1  0
 31 32  2  0
 31 33  1  0
 33 34  1  0
 34 35  1  0
 35 36  2  0
 35 37  1  0
 37 38  1  0
 38 39  1  0
 39 40  2  0
 39 41  1  0
 41 42  1  0
 42 43  1  0
 43 44  2  0
 44 45  1  0
 45 46  2  0
 46 47  1  0
 47 48  2  0
 46 49  1  0
 45 50  1  0
 50 51  1  0
 51 52  2  0
 52 53  1  0
 53 54  2  0
 54 55  1  0
 55 56  1  0
 53 57  1  0
 51 58  1  0
 58 59  1  0
 59 60  1  0
 60 61  2  0
 60 62  1  0
 62 63  1  0
 63 64  1  0
 64 65  2  0
 65 66  1  0
 66 67  2  0
 67 68  1  0
 67 69  1  0
 69 70  2  0
 66 71  1  0
 63 72  1  0
 62 73  1  0
 73 74  1  0
 74 75  2  0
 58 76  1  0
 76 77  2  0
 76 78  1  0
 34 79  1  0
 79 80  1  0
 80 81  2  0
 80 82  1  0
 30 83  1  0
 83 84  1  0
 84 85  2  0
 84 86  1  0
 86 87  1  0
 87 88  1  0
 88 89  1  0
 88 90  1  0
 86 91  1  0
 91 92  1  0
 29 93  1  0
 24 94  1  0
 12 95  1  0
 95 96  1  0
 11 97  1  0
 10 98  1  0
  4 99  1  0
  4100  1  0
  3101  1  0
  7  2  1  0
 70 64  1  0
 14  9  1  0
 21 16  2  0
 68 17  1  0
 38 19  1  0
 28 23  1  0
 74 42  1  0
 48 43  1  0
 55 50  2  0
M  END
$$$$
