
     RDKit          3D

 25 24  0  0  0  0  0  0  0  0999 V2000
   -2.0770   -0.0279  -12.6829 C   0  0  0  0  0  0  0  0  0  0  0  0
   -3.2993   -0.3019  -12.6734 O   0  0  0  0  0  0  0  0  0  0  0  0
   -1.0368   -0.9800  -12.1175 C   0  0  0  0  0  0  0  0  0  0  0  0
   -1.0808   -0.8311  -10.6615 C   0  0  0  0  0  0  0  0  0  0  0  0
   -0.0687   -1.4973   -9.8001 C   0  0  0  0  0  0  0  0  0  0  0  0
   -0.2942   -1.5272   -8.3467 C   0  0  0  0  0  0  0  0  0  0  0  0
    0.8115   -1.9047   -7.4395 C   0  0  0  0  0  0  0  0  0  0  0  0
    0.5623   -2.0479   -5.9914 C   0  0  0  0  0  0  0  0  0  0  0  0
    1.6990   -2.9765   -5.4689 C   0  0  0  0  0  0  0  0  0  0  0  0
    2.6861   -2.1378   -5.0463 F   0  0  0  0  0  0  0  0  0  0  0  0
    1.1874   -3.7817   -4.4791 F   0  0  0  0  0  0  0  0  0  0  0  0
    2.1429   -3.6527   -6.5678 F   0  0  0  0  0  0  0  0  0  0  0  0
    0.7025   -0.8654   -5.2688 F   0  0  0  0  0  0  0  0  0  0  0  0
   -0.5969   -2.6481   -5.6146 F   0  0  0  0  0  0  0  0  0  0  0  0
    1.3571   -3.1017   -7.9497 F   0  0  0  0  0  0  0  0  0  0  0  0
    1.9042   -1.0182   -7.5567 F   0  0  0  0  0  0  0  0  0  0  0  0
   -0.7353   -0.2471   -7.9401 F   0  0  0  0  0  0  0  0  0  0  0  0
   -1.4092   -2.3469   -8.1103 F   0  0  0  0  0  0  0  0  0  0  0  0
    1.1830   -0.8940  -10.0193 F   0  0  0  0  0  0  0  0  0  0  0  0
    0.1037   -2.7778  -10.3341 F   0  0  0  0  0  0  0  0  0  0  0  0
   -1.1254    0.5147  -10.3009 F   0  0  0  0  0  0  0  0  0  0  0  0
   -2.3305   -1.3295  -10.2443 F   0  0  0  0  0  0  0  0  0  0  0  0
   -1.3646   -2.2649  -12.5005 F   0  0  0  0  0  0  0  0  0  0  0  0
    0.1290   -0.6359  -12.7591 F   0  0  0  0  0  0  0  0  0  0  0  0
   -1.6808    1.1901  -13.2325 O   0  0  0  0  0  0  0  0  0  0  0  0
  1  2  2  0
  1  3  1  0
  3  4  1  0
  4  5  1  0
  5  6  1  0
  6  7  1  0
  7  8  1  0
  8  9  1  0
  9 10  1  0
  9 11  1  0
  9 12  1  0
  8 13  1  0
  8 14  1  0
  7 15  1  0
  7 16  1  0
  6 17  1  0
  6 18  1  0
  5 19  1  0
  5 20  1  0
  4 21  1  0
  4 22  1  0
  3 23  1  0
  3 24  1  0
  1 25  1  0
M  END
$$$$
