
     RDKit          3D

 25 24  0  0  0  0  0  0  0  0999 V2000
   -1.2280   -0.5302   -9.5213 C   0  0  0  0  0  0  0  0  0  0  0  0
   -2.1202   -0.3550   -8.6598 O   0  0  0  0  0  0  0  0  0  0  0  0
    0.0510   -1.2885   -9.2093 C   0  0  0  0  0  0  0  0  0  0  0  0
   -0.0204   -1.6661   -7.7964 C   0  0  0  0  0  0  0  0  0  0  0  0
    1.1014   -2.3954   -7.1486 C   0  0  0  0  0  0  0  0  0  0  0  0
    0.8330   -3.1356   -5.9059 C   0  0  0  0  0  0  0  0  0  0  0  0
    1.8327   -4.0980   -5.3937 C   0  0  0  0  0  0  0  0  0  0  0  0
    1.4496   -5.0815   -4.3615 C   0  0  0  0  0  0  0  0  0  0  0  0
    2.5347   -6.1972   -4.4344 C   0  0  0  0  0  0  0  0  0  0  0  0
    3.7201   -5.5645   -4.2087 F   0  0  0  0  0  0  0  0  0  0  0  0
    2.2316   -7.1651   -3.5064 F   0  0  0  0  0  0  0  0  0  0  0  0
    2.5134   -6.6338   -5.7269 F   0  0  0  0  0  0  0  0  0  0  0  0
    1.5189   -4.5964   -3.0577 F   0  0  0  0  0  0  0  0  0  0  0  0
    0.2617   -5.7214   -4.5204 F   0  0  0  0  0  0  0  0  0  0  0  0
    2.3565   -4.7683   -6.5194 F   0  0  0  0  0  0  0  0  0  0  0  0
    2.9773   -3.4399   -4.8931 F   0  0  0  0  0  0  0  0  0  0  0  0
    0.6034   -2.1986   -4.8726 F   0  0  0  0  0  0  0  0  0  0  0  0
   -0.4108   -3.7697   -6.0537 F   0  0  0  0  0  0  0  0  0  0  0  0
    2.1404   -1.4859   -6.8803 F   0  0  0  0  0  0  0  0  0  0  0  0
    1.6498   -3.2123   -8.1418 F   0  0  0  0  0  0  0  0  0  0  0  0
   -0.3238   -0.5617   -7.0018 F   0  0  0  0  0  0  0  0  0  0  0  0
   -1.1504   -2.4960   -7.6590 F   0  0  0  0  0  0  0  0  0  0  0  0
    0.1105   -2.4013  -10.0236 F   0  0  0  0  0  0  0  0  0  0  0  0
    1.0585   -0.4351   -9.5915 F   0  0  0  0  0  0  0  0  0  0  0  0
   -1.4339   -0.0067  -10.7965 O   0  0  0  0  0  0  0  0  0  0  0  0
  1  2  2  0
  1  3  1  0
  3  4  1  0
  4  5  1  0
  5  6  1  0
  6  7  1  0
  7  8  1  0
  8  9  1  0
  9 10  1  0
  9 11  1  0
  9 12  1  0
  8 13  1  0
  8 14  1  0
  7 15  1  0
  7 16  1  0
  6 17  1  0
  6 18  1  0
  5 19  1  0
  5 20  1  0
  4 21  1  0
  4 22  1  0
  3 23  1  0
  3 24  1  0
  1 25  1  0
M  END
$$$$
