
     RDKit          3D

 25 24  0  0  0  0  0  0  0  0999 V2000
   -3.5732   -6.4845   -3.9568 C   0  0  0  0  0  0  0  0  0  0  0  0
   -2.7110   -7.3927   -3.9285 O   0  0  0  0  0  0  0  0  0  0  0  0
   -3.2310   -5.0660   -4.3799 C   0  0  0  0  0  0  0  0  0  0  0  0
   -1.7988   -5.0539   -4.6839 C   0  0  0  0  0  0  0  0  0  0  0  0
   -1.1126   -3.7882   -5.0542 C   0  0  0  0  0  0  0  0  0  0  0  0
    0.3566   -3.7425   -4.9945 C   0  0  0  0  0  0  0  0  0  0  0  0
    1.0697   -2.5085   -5.3902 C   0  0  0  0  0  0  0  0  0  0  0  0
    2.4426   -2.2618   -4.9066 C   0  0  0  0  0  0  0  0  0  0  0  0
    2.8717   -0.9134   -5.5589 C   0  0  0  0  0  0  0  0  0  0  0  0
    1.7218   -0.3601   -6.0363 F   0  0  0  0  0  0  0  0  0  0  0  0
    3.5077   -0.1496   -4.6091 F   0  0  0  0  0  0  0  0  0  0  0  0
    3.6593   -1.2619   -6.6171 F   0  0  0  0  0  0  0  0  0  0  0  0
    2.5333   -2.0428   -3.5341 F   0  0  0  0  0  0  0  0  0  0  0  0
    3.3998   -3.1572   -5.2641 F   0  0  0  0  0  0  0  0  0  0  0  0
    1.0467   -2.4674   -6.8004 F   0  0  0  0  0  0  0  0  0  0  0  0
    0.3303   -1.3526   -5.0572 F   0  0  0  0  0  0  0  0  0  0  0  0
    0.7557   -4.0366   -3.6707 F   0  0  0  0  0  0  0  0  0  0  0  0
    0.8421   -4.8340   -5.7319 F   0  0  0  0  0  0  0  0  0  0  0  0
   -1.5993   -2.7513   -4.2375 F   0  0  0  0  0  0  0  0  0  0  0  0
   -1.6006   -3.4452   -6.3187 F   0  0  0  0  0  0  0  0  0  0  0  0
   -1.0678   -5.6481   -3.6564 F   0  0  0  0  0  0  0  0  0  0  0  0
   -1.6121   -5.9268   -5.7737 F   0  0  0  0  0  0  0  0  0  0  0  0
   -3.9828   -4.7471   -5.4926 F   0  0  0  0  0  0  0  0  0  0  0  0
   -3.6690   -4.2818   -3.3394 F   0  0  0  0  0  0  0  0  0  0  0  0
   -4.8779   -6.8051   -3.5859 O   0  0  0  0  0  0  0  0  0  0  0  0
  1  2  2  0
  1  3  1  0
  3  4  1  0
  4  5  1  0
  5  6  1  0
  6  7  1  0
  7  8  1  0
  8  9  1  0
  9 10  1  0
  9 11  1  0
  9 12  1  0
  8 13  1  0
  8 14  1  0
  7 15  1  0
  7 16  1  0
  6 17  1  0
  6 18  1  0
  5 19  1  0
  5 20  1  0
  4 21  1  0
  4 22  1  0
  3 23  1  0
  3 24  1  0
  1 25  1  0
M  END
$$$$
