
     RDKit          3D

 25 24  0  0  0  0  0  0  0  0999 V2000
   -6.4157    1.3063  -15.5724 C   0  0  0  0  0  0  0  0  0  0  0  0
   -6.1289    2.1852  -16.4176 O   0  0  0  0  0  0  0  0  0  0  0  0
   -5.8039    1.3003  -14.1817 C   0  0  0  0  0  0  0  0  0  0  0  0
   -4.6520    0.3980  -14.2351 C   0  0  0  0  0  0  0  0  0  0  0  0
   -3.7132    0.2978  -13.0868 C   0  0  0  0  0  0  0  0  0  0  0  0
   -2.6438   -0.7110  -13.1402 C   0  0  0  0  0  0  0  0  0  0  0  0
   -1.7638   -0.9112  -11.9683 C   0  0  0  0  0  0  0  0  0  0  0  0
   -0.6301   -1.8534  -12.0486 C   0  0  0  0  0  0  0  0  0  0  0  0
    0.1698   -1.6471  -10.7275 C   0  0  0  0  0  0  0  0  0  0  0  0
    0.5984   -0.3542  -10.7619 F   0  0  0  0  0  0  0  0  0  0  0  0
   -0.6549   -1.9349   -9.6660 F   0  0  0  0  0  0  0  0  0  0  0  0
    1.2544   -2.4682  -10.8333 F   0  0  0  0  0  0  0  0  0  0  0  0
   -1.0020   -3.1956  -12.0384 F   0  0  0  0  0  0  0  0  0  0  0  0
    0.2691   -1.6631  -13.0492 F   0  0  0  0  0  0  0  0  0  0  0  0
   -1.2957    0.3668  -11.5960 F   0  0  0  0  0  0  0  0  0  0  0  0
   -2.5005   -1.2913  -10.8252 F   0  0  0  0  0  0  0  0  0  0  0  0
   -3.2309   -1.9645  -13.4272 F   0  0  0  0  0  0  0  0  0  0  0  0
   -1.8698   -0.4443  -14.2807 F   0  0  0  0  0  0  0  0  0  0  0  0
   -4.4532    0.0648  -11.9134 F   0  0  0  0  0  0  0  0  0  0  0  0
   -3.2124    1.5882  -12.8894 F   0  0  0  0  0  0  0  0  0  0  0  0
   -5.0489   -0.8948  -14.5729 F   0  0  0  0  0  0  0  0  0  0  0  0
   -3.8730    0.8058  -15.3357 F   0  0  0  0  0  0  0  0  0  0  0  0
   -5.4187    2.5877  -13.8669 F   0  0  0  0  0  0  0  0  0  0  0  0
   -6.8438    0.9589  -13.3502 F   0  0  0  0  0  0  0  0  0  0  0  0
   -7.3239    0.3144  -15.9381 O   0  0  0  0  0  0  0  0  0  0  0  0
  1  2  2  0
  1  3  1  0
  3  4  1  0
  4  5  1  0
  5  6  1  0
  6  7  1  0
  7  8  1  0
  8  9  1  0
  9 10  1  0
  9 11  1  0
  9 12  1  0
  8 13  1  0
  8 14  1  0
  7 15  1  0
  7 16  1  0
  6 17  1  0
  6 18  1  0
  5 19  1  0
  5 20  1  0
  4 21  1  0
  4 22  1  0
  3 23  1  0
  3 24  1  0
  1 25  1  0
M  END
$$$$
