
     RDKit          3D

 25 24  0  0  0  0  0  0  0  0999 V2000
   -2.0511   -0.0269  -13.4320 C   0  0  0  0  0  0  0  0  0  0  0  0
   -3.0646    0.6827  -13.2366 O   0  0  0  0  0  0  0  0  0  0  0  0
   -1.7852   -1.2860  -12.6244 C   0  0  0  0  0  0  0  0  0  0  0  0
   -1.3128   -0.8479  -11.3096 C   0  0  0  0  0  0  0  0  0  0  0  0
   -0.8171   -1.8346  -10.3142 C   0  0  0  0  0  0  0  0  0  0  0  0
   -0.4761   -1.3595   -8.9643 C   0  0  0  0  0  0  0  0  0  0  0  0
    0.2381   -2.2554   -8.0289 C   0  0  0  0  0  0  0  0  0  0  0  0
    0.5529   -1.7960   -6.6617 C   0  0  0  0  0  0  0  0  0  0  0  0
    1.1570   -3.0378   -5.9401 C   0  0  0  0  0  0  0  0  0  0  0  0
    2.4330   -3.1421   -6.4062 F   0  0  0  0  0  0  0  0  0  0  0  0
    1.0720   -2.8404   -4.5823 F   0  0  0  0  0  0  0  0  0  0  0  0
    0.4378   -4.1032   -6.3976 F   0  0  0  0  0  0  0  0  0  0  0  0
    1.5493   -0.8246   -6.6015 F   0  0  0  0  0  0  0  0  0  0  0  0
   -0.4865   -1.3959   -5.8836 F   0  0  0  0  0  0  0  0  0  0  0  0
   -0.5095   -3.4506   -7.9697 F   0  0  0  0  0  0  0  0  0  0  0  0
    1.4595   -2.7076   -8.5743 F   0  0  0  0  0  0  0  0  0  0  0  0
    0.3111   -0.1921   -9.0910 F   0  0  0  0  0  0  0  0  0  0  0  0
   -1.6595   -0.8922   -8.3710 F   0  0  0  0  0  0  0  0  0  0  0  0
    0.3226   -2.4733  -10.8357 F   0  0  0  0  0  0  0  0  0  0  0  0
   -1.7662   -2.8608  -10.2887 F   0  0  0  0  0  0  0  0  0  0  0  0
   -0.3471    0.1495  -11.4357 F   0  0  0  0  0  0  0  0  0  0  0  0
   -2.3944   -0.1886  -10.6933 F   0  0  0  0  0  0  0  0  0  0  0  0
   -2.9630   -1.9983  -12.5226 F   0  0  0  0  0  0  0  0  0  0  0  0
   -0.9193   -2.0170  -13.4024 F   0  0  0  0  0  0  0  0  0  0  0  0
   -1.1541    0.3672  -14.4233 O   0  0  0  0  0  0  0  0  0  0  0  0
  1  2  2  0
  1  3  1  0
  3  4  1  0
  4  5  1  0
  5  6  1  0
  6  7  1  0
  7  8  1  0
  8  9  1  0
  9 10  1  0
  9 11  1  0
  9 12  1  0
  8 13  1  0
  8 14  1  0
  7 15  1  0
  7 16  1  0
  6 17  1  0
  6 18  1  0
  5 19  1  0
  5 20  1  0
  4 21  1  0
  4 22  1  0
  3 23  1  0
  3 24  1  0
  1 25  1  0
M  END
$$$$
