
     RDKit          3D

 25 24  0  0  0  0  0  0  0  0999 V2000
   -0.0439   -2.6213   -7.0376 C   0  0  0  0  0  0  0  0  0  0  0  0
   -1.2128   -2.1717   -7.0617 O   0  0  0  0  0  0  0  0  0  0  0  0
    0.6753   -2.9173   -5.7325 C   0  0  0  0  0  0  0  0  0  0  0  0
    1.3073   -1.6661   -5.3097 C   0  0  0  0  0  0  0  0  0  0  0  0
    2.3692   -1.6663   -4.2694 C   0  0  0  0  0  0  0  0  0  0  0  0
    2.9918   -0.3853   -3.9013 C   0  0  0  0  0  0  0  0  0  0  0  0
    3.7949   -0.2880   -2.6629 C   0  0  0  0  0  0  0  0  0  0  0  0
    4.5425    0.9492   -2.3630 C   0  0  0  0  0  0  0  0  0  0  0  0
    5.0784    0.7636   -0.9118 C   0  0  0  0  0  0  0  0  0  0  0  0
    5.8991   -0.3227   -0.9651 F   0  0  0  0  0  0  0  0  0  0  0  0
    5.7089    1.9226   -0.5255 F   0  0  0  0  0  0  0  0  0  0  0  0
    3.9830    0.4454   -0.1632 F   0  0  0  0  0  0  0  0  0  0  0  0
    5.6796    1.1327   -3.1461 F   0  0  0  0  0  0  0  0  0  0  0  0
    3.8407    2.1124   -2.3432 F   0  0  0  0  0  0  0  0  0  0  0  0
    2.9224   -0.5882   -1.5953 F   0  0  0  0  0  0  0  0  0  0  0  0
    4.7343   -1.3380   -2.5699 F   0  0  0  0  0  0  0  0  0  0  0  0
    3.8312    0.0210   -4.9637 F   0  0  0  0  0  0  0  0  0  0  0  0
    1.9801    0.5880   -3.8942 F   0  0  0  0  0  0  0  0  0  0  0  0
    3.4000   -2.5348   -4.6719 F   0  0  0  0  0  0  0  0  0  0  0  0
    1.8206   -2.3236   -3.1641 F   0  0  0  0  0  0  0  0  0  0  0  0
    1.7899   -0.9572   -6.4087 F   0  0  0  0  0  0  0  0  0  0  0  0
    0.2776   -0.8450   -4.8096 F   0  0  0  0  0  0  0  0  0  0  0  0
   -0.2545   -3.3473   -4.8075 F   0  0  0  0  0  0  0  0  0  0  0  0
    1.4967   -3.9797   -6.0259 F   0  0  0  0  0  0  0  0  0  0  0  0
    0.5976   -2.8497   -8.2537 O   0  0  0  0  0  0  0  0  0  0  0  0
  1  2  2  0
  1  3  1  0
  3  4  1  0
  4  5  1  0
  5  6  1  0
  6  7  1  0
  7  8  1  0
  8  9  1  0
  9 10  1  0
  9 11  1  0
  9 12  1  0
  8 13  1  0
  8 14  1  0
  7 15  1  0
  7 16  1  0
  6 17  1  0
  6 18  1  0
  5 19  1  0
  5 20  1  0
  4 21  1  0
  4 22  1  0
  3 23  1  0
  3 24  1  0
  1 25  1  0
M  END
$$$$
