
     RDKit          3D

  4  3  0  0  0  0  0  0  0  0999 V2000
    5.9336    1.1458  -18.1131 C   0  0  0  0  0  0  0  0  0  0  0  0
    6.4170    2.4645  -18.6923 C   0  0  0  0  0  0  0  0  0  0  0  0
    7.2424    2.1748  -20.2447 Cl  0  0  0  0  0  0  0  0  0  0  0  0
    4.4903    1.3696  -17.1056 Cl  0  0  0  0  0  0  0  0  0  0  0  0
  1  2  1  0
  2  3  1  0
  1  4  1  0
M  END
$$$$
