
     RDKit          3D

  4  3  0  0  0  0  0  0  0  0999 V2000
   11.3093    2.7730   16.0571 C   0  0  0  0  0  0  0  0  0  0  0  0
   10.6415    1.8952   15.0123 C   0  0  0  0  0  0  0  0  0  0  0  0
   11.1101    0.1947   15.2647 Cl  0  0  0  0  0  0  0  0  0  0  0  0
   10.8605    4.4778   15.8556 Cl  0  0  0  0  0  0  0  0  0  0  0  0
  1  2  1  0
  2  3  1  0
  1  4  1  0
M  END
$$$$
