
     RDKit          3D

  4  3  0  0  0  0  0  0  0  0999 V2000
    9.3073   -8.4567   -1.4571 C   0  0  0  0  0  0  0  0  0  0  0  0
    9.5923   -7.1036   -0.8279 C   0  0  0  0  0  0  0  0  0  0  0  0
    9.9868   -7.3119    0.8972 Cl  0  0  0  0  0  0  0  0  0  0  0  0
    8.3240   -8.2957   -2.9253 Cl  0  0  0  0  0  0  0  0  0  0  0  0
  1  2  1  0
  2  3  1  0
  1  4  1  0
M  END
$$$$
