
     RDKit          3D

  4  3  0  0  0  0  0  0  0  0999 V2000
    7.4351   -1.7537    9.7563 C   0  0  0  0  0  0  0  0  0  0  0  0
    6.7669   -0.8241   10.7551 C   0  0  0  0  0  0  0  0  0  0  0  0
    7.4951    0.7988   10.6489 Cl  0  0  0  0  0  0  0  0  0  0  0  0
    6.8188   -3.4114    9.8997 Cl  0  0  0  0  0  0  0  0  0  0  0  0
  1  2  1  0
  2  3  1  0
  1  4  1  0
M  END
$$$$
