
     RDKit          3D

  4  3  0  0  0  0  0  0  0  0999 V2000
    5.0809   -5.2455    9.4722 C   0  0  0  0  0  0  0  0  0  0  0  0
    5.0031   -5.1696    7.9568 C   0  0  0  0  0  0  0  0  0  0  0  0
    3.4102   -5.7471    7.4051 Cl  0  0  0  0  0  0  0  0  0  0  0  0
    6.6885   -4.7827   10.0636 Cl  0  0  0  0  0  0  0  0  0  0  0  0
  1  2  1  0
  2  3  1  0
  1  4  1  0
M  END
$$$$
