
     RDKit          3D

 25 24  0  0  0  0  0  0  0  0999 V2000
    2.4016    5.4570  -14.2068 C   0  0  0  0  0  0  0  0  0  0  0  0
    2.5452    5.1769  -15.4222 O   0  0  0  0  0  0  0  0  0  0  0  0
    2.5861    4.4364  -13.1216 C   0  0  0  0  0  0  0  0  0  0  0  0
    1.2236    4.0240  -12.5909 C   0  0  0  0  0  0  0  0  0  0  0  0
    1.4039    3.0645  -11.4459 C   0  0  0  0  0  0  0  0  0  0  0  0
    0.1696    2.3905  -10.9875 C   0  0  0  0  0  0  0  0  0  0  0  0
    0.1904    1.5591   -9.7719 C   0  0  0  0  0  0  0  0  0  0  0  0
   -1.0282    0.7995   -9.4087 C   0  0  0  0  0  0  0  0  0  0  0  0
   -0.7729    0.1486   -8.0599 C   0  0  0  0  0  0  0  0  0  0  0  0
   -0.4586    1.1202   -7.1429 F   0  0  0  0  0  0  0  0  0  0  0  0
   -1.9219   -0.4735   -7.6213 F   0  0  0  0  0  0  0  0  0  0  0  0
    0.2547   -0.7634   -8.0912 F   0  0  0  0  0  0  0  0  0  0  0  0
   -2.2049    1.4454   -9.3370 F   0  0  0  0  0  0  0  0  0  0  0  0
   -1.1780   -0.2108  -10.3696 F   0  0  0  0  0  0  0  0  0  0  0  0
    0.7550    2.2349   -8.6765 F   0  0  0  0  0  0  0  0  0  0  0  0
    1.1723    0.5593  -10.0309 F   0  0  0  0  0  0  0  0  0  0  0  0
   -0.2273    1.5253  -12.0332 F   0  0  0  0  0  0  0  0  0  0  0  0
   -0.9027    3.2844  -10.8968 F   0  0  0  0  0  0  0  0  0  0  0  0
    1.8350    3.8640  -10.3601 F   0  0  0  0  0  0  0  0  0  0  0  0
    2.4295    2.2210  -11.8286 F   0  0  0  0  0  0  0  0  0  0  0  0
    0.5691    3.4245  -13.6115 F   0  0  0  0  0  0  0  0  0  0  0  0
    0.5236    5.1011  -12.1203 F   0  0  0  0  0  0  0  0  0  0  0  0
    3.2677    3.3701  -13.6316 F   0  0  0  0  0  0  0  0  0  0  0  0
    3.3127    4.9890  -12.0927 F   0  0  0  0  0  0  0  0  0  0  0  0
    2.0605    6.7514  -13.8390 O   0  0  0  0  0  0  0  0  0  0  0  0
  1  2  2  0
  1  3  1  0
  3  4  1  0
  4  5  1  0
  5  6  1  0
  6  7  1  0
  7  8  1  0
  8  9  1  0
  9 10  1  0
  9 11  1  0
  9 12  1  0
  8 13  1  0
  8 14  1  0
  7 15  1  0
  7 16  1  0
  6 17  1  0
  6 18  1  0
  5 19  1  0
  5 20  1  0
  4 21  1  0
  4 22  1  0
  3 23  1  0
  3 24  1  0
  1 25  1  0
M  END
$$$$
