
     RDKit          3D

  4  3  0  0  0  0  0  0  0  0999 V2000
   -8.3148    4.1973  -12.3786 C   0  0  0  0  0  0  0  0  0  0  0  0
   -6.8517    4.5668  -12.1335 C   0  0  0  0  0  0  0  0  0  0  0  0
   -5.8943    3.3172  -12.9577 Cl  0  0  0  0  0  0  0  0  0  0  0  0
   -9.2914    5.4034  -11.5014 Cl  0  0  0  0  0  0  0  0  0  0  0  0
  1  2  1  0
  2  3  1  0
  1  4  1  0
M  END
$$$$
