
     RDKit          3D

  4  3  0  0  0  0  0  0  0  0999 V2000
   -4.1992    9.7461    5.4554 C   0  0  0  0  0  0  0  0  0  0  0  0
   -3.6738    9.9613    6.8750 C   0  0  0  0  0  0  0  0  0  0  0  0
   -2.8641   11.5429    6.8547 Cl  0  0  0  0  0  0  0  0  0  0  0  0
   -4.6908    8.0354    5.3556 Cl  0  0  0  0  0  0  0  0  0  0  0  0
  1  2  1  0
  2  3  1  0
  1  4  1  0
M  END
$$$$
