
     RDKit          3D

  4  3  0  0  0  0  0  0  0  0999 V2000
    2.8024    9.2387   -1.7991 C   0  0  0  0  0  0  0  0  0  0  0  0
    3.2753   10.6648   -1.5160 C   0  0  0  0  0  0  0  0  0  0  0  0
    3.8344   11.3058   -3.0761 Cl  0  0  0  0  0  0  0  0  0  0  0  0
    2.0527    8.6496   -0.2928 Cl  0  0  0  0  0  0  0  0  0  0  0  0
  1  2  1  0
  2  3  1  0
  1  4  1  0
M  END
$$$$
