
     RDKit          3D

  4  3  0  0  0  0  0  0  0  0999 V2000
   -8.3093    3.5074  -11.3125 C   0  0  0  0  0  0  0  0  0  0  0  0
   -9.0414    4.0811  -12.5260 C   0  0  0  0  0  0  0  0  0  0  0  0
   -8.4354    5.7408  -12.7143 Cl  0  0  0  0  0  0  0  0  0  0  0  0
   -9.1117    1.9634  -10.9253 Cl  0  0  0  0  0  0  0  0  0  0  0  0
  1  2  1  0
  2  3  1  0
  1  4  1  0
M  END
$$$$
