
     RDKit          3D

  4  3  0  0  0  0  0  0  0  0999 V2000
    9.8006  -12.5875   -1.7343 C   0  0  0  0  0  0  0  0  0  0  0  0
   10.0467  -12.2024   -3.1797 C   0  0  0  0  0  0  0  0  0  0  0  0
    8.6926  -11.0889   -3.5500 Cl  0  0  0  0  0  0  0  0  0  0  0  0
   11.1925  -13.2613   -0.9244 Cl  0  0  0  0  0  0  0  0  0  0  0  0
  1  2  1  0
  2  3  1  0
  1  4  1  0
M  END
$$$$
