
     RDKit          3D

  4  3  0  0  0  0  0  0  0  0999 V2000
   13.6572  -11.0428    7.0794 C   0  0  0  0  0  0  0  0  0  0  0  0
   14.9461  -10.8155    6.3147 C   0  0  0  0  0  0  0  0  0  0  0  0
   14.4193   -9.8812    4.8794 Cl  0  0  0  0  0  0  0  0  0  0  0  0
   13.7790  -12.2289    8.3544 Cl  0  0  0  0  0  0  0  0  0  0  0  0
  1  2  1  0
  2  3  1  0
  1  4  1  0
M  END
$$$$
