
     RDKit          3D

  4  3  0  0  0  0  0  0  0  0999 V2000
   11.7271   -3.5620  -12.9685 C   0  0  0  0  0  0  0  0  0  0  0  0
   11.2816   -3.1256  -14.3501 C   0  0  0  0  0  0  0  0  0  0  0  0
   10.0296   -1.8890  -14.0124 Cl  0  0  0  0  0  0  0  0  0  0  0  0
   13.2444   -4.4249  -12.9431 Cl  0  0  0  0  0  0  0  0  0  0  0  0
  1  2  1  0
  2  3  1  0
  1  4  1  0
M  END
$$$$
