
     RDKit          3D

  4  3  0  0  0  0  0  0  0  0999 V2000
    7.1637   15.6522    1.5942 C   0  0  0  0  0  0  0  0  0  0  0  0
    7.2789   14.2415    2.1369 C   0  0  0  0  0  0  0  0  0  0  0  0
    5.7366   14.0076    3.0187 Cl  0  0  0  0  0  0  0  0  0  0  0  0
    8.2600   16.0083    0.2832 Cl  0  0  0  0  0  0  0  0  0  0  0  0
  1  2  1  0
  2  3  1  0
  1  4  1  0
M  END
$$$$
