
     RDKit          3D

  4  3  0  0  0  0  0  0  0  0999 V2000
   14.4204   -9.3646    6.5329 C   0  0  0  0  0  0  0  0  0  0  0  0
   13.7985   -9.6690    5.1844 C   0  0  0  0  0  0  0  0  0  0  0  0
   12.9327  -11.2126    5.4642 Cl  0  0  0  0  0  0  0  0  0  0  0  0
   15.7161   -8.1961    6.4782 Cl  0  0  0  0  0  0  0  0  0  0  0  0
  1  2  1  0
  2  3  1  0
  1  4  1  0
M  END
$$$$
