
     RDKit          3D

  4  3  0  0  0  0  0  0  0  0999 V2000
  -12.1094   -3.2548  -13.9912 C   0  0  0  0  0  0  0  0  0  0  0  0
  -11.4754   -3.9495  -12.8024 C   0  0  0  0  0  0  0  0  0  0  0  0
  -12.7132   -3.7877  -11.5170 Cl  0  0  0  0  0  0  0  0  0  0  0  0
  -11.2980   -3.5462  -15.5091 Cl  0  0  0  0  0  0  0  0  0  0  0  0
  1  2  1  0
  2  3  1  0
  1  4  1  0
M  END
$$$$
