
     RDKit          3D

  8  8  0  0  0  0  0  0  0  0999 V2000
   22.2307  -44.4778   15.5877 C   0  0  0  0  0  0  0  0  0  0  0  0
   20.9989  -44.0735   16.3347 C   0  0  0  0  0  0  0  0  0  0  0  0
   20.0690  -43.0632   15.6833 C   0  0  0  0  0  0  0  0  0  0  0  0
   20.8238  -42.7876   16.8017 O   0  0  0  0  0  0  0  0  0  0  0  0
   18.3294  -43.5237   15.7867 P   0  0  0  0  0  0  0  0  0  0  0  0
   18.1865  -45.0195   15.5185 O   0  0  0  0  0  0  0  0  0  0  0  0
   17.6597  -43.2029   17.2912 O   0  0  0  0  0  0  0  0  0  0  0  0
   17.5020  -42.7207   14.5397 O   0  0  0  0  0  0  0  0  0  0  0  0
  1  2  1  0
  2  3  1  0
  3  4  1  0
  3  5  1  0
  5  6  2  0
  5  7  1  0
  5  8  1  0
  4  2  1  0
M  END
$$$$
