
     RDKit          3D

  4  3  0  0  0  0  0  0  0  0999 V2000
    3.0195   -9.1142    8.8105 C   0  0  0  0  0  0  0  0  0  0  0  0
    4.5256   -9.1145    8.9833 C   0  0  0  0  0  0  0  0  0  0  0  0
    5.0144   -7.4051    8.7519 Cl  0  0  0  0  0  0  0  0  0  0  0  0
    2.6204  -10.7932    8.3294 Cl  0  0  0  0  0  0  0  0  0  0  0  0
  1  2  1  0
  2  3  1  0
  1  4  1  0
M  END
$$$$
