
     RDKit          3D

  4  3  0  0  0  0  0  0  0  0999 V2000
    3.4741   -4.2407   -6.3798 C   0  0  0  0  0  0  0  0  0  0  0  0
    3.8797   -5.5815   -6.9595 C   0  0  0  0  0  0  0  0  0  0  0  0
    5.6510   -5.4575   -7.2074 Cl  0  0  0  0  0  0  0  0  0  0  0  0
    1.9500   -3.8263   -7.2254 Cl  0  0  0  0  0  0  0  0  0  0  0  0
  1  2  1  0
  2  3  1  0
  1  4  1  0
M  END
$$$$
