
     RDKit          3D

  4  3  0  0  0  0  0  0  0  0999 V2000
    5.8197   -4.6183    9.9360 C   0  0  0  0  0  0  0  0  0  0  0  0
    7.2644   -4.9656    9.6351 C   0  0  0  0  0  0  0  0  0  0  0  0
    7.3876   -6.7268    9.9472 Cl  0  0  0  0  0  0  0  0  0  0  0  0
    5.6511   -2.9092    9.4258 Cl  0  0  0  0  0  0  0  0  0  0  0  0
  1  2  1  0
  2  3  1  0
  1  4  1  0
M  END
$$$$
