
     RDKit          3D

  4  3  0  0  0  0  0  0  0  0999 V2000
    1.0394    0.3722   17.4411 C   0  0  0  0  0  0  0  0  0  0  0  0
    1.8817   -0.7475   18.0183 C   0  0  0  0  0  0  0  0  0  0  0  0
    3.1569   -1.0746   16.7977 Cl  0  0  0  0  0  0  0  0  0  0  0  0
   -0.6161    0.3493   18.0396 Cl  0  0  0  0  0  0  0  0  0  0  0  0
  1  2  1  0
  2  3  1  0
  1  4  1  0
M  END
$$$$
