
     RDKit          3D

  4  3  0  0  0  0  0  0  0  0999 V2000
  -19.0159   -8.7904   -4.3450 C   0  0  0  0  0  0  0  0  0  0  0  0
  -18.3058   -7.6076   -4.9722 C   0  0  0  0  0  0  0  0  0  0  0  0
  -18.7525   -6.1862   -3.9705 Cl  0  0  0  0  0  0  0  0  0  0  0  0
  -18.3136  -10.3317   -4.8252 Cl  0  0  0  0  0  0  0  0  0  0  0  0
  1  2  1  0
  2  3  1  0
  1  4  1  0
M  END
$$$$
