
     RDKit          3D

  4  3  0  0  0  0  0  0  0  0999 V2000
   -7.5078   -7.2906   -4.5779 C   0  0  0  0  0  0  0  0  0  0  0  0
   -7.5663   -8.8041   -4.6290 C   0  0  0  0  0  0  0  0  0  0  0  0
   -5.8598   -9.3584   -4.5663 Cl  0  0  0  0  0  0  0  0  0  0  0  0
   -8.9744   -6.5369   -5.1946 Cl  0  0  0  0  0  0  0  0  0  0  0  0
  1  2  1  0
  2  3  1  0
  1  4  1  0
M  END
$$$$
