
     RDKit          3D

  4  3  0  0  0  0  0  0  0  0999 V2000
    8.5659   10.0977    9.8908 C   0  0  0  0  0  0  0  0  0  0  0  0
    9.4452   10.9771    9.0248 C   0  0  0  0  0  0  0  0  0  0  0  0
   10.5556   11.8186   10.1572 Cl  0  0  0  0  0  0  0  0  0  0  0  0
    7.4388    9.1304    8.9457 Cl  0  0  0  0  0  0  0  0  0  0  0  0
  1  2  1  0
  2  3  1  0
  1  4  1  0
M  END
$$$$
