
     RDKit          3D

 25 24  0  0  0  0  0  0  0  0999 V2000
   -7.5328    2.8131    5.8822 C   0  0  0  0  0  0  0  0  0  0  0  0
   -7.4177    4.0408    6.1964 O   0  0  0  0  0  0  0  0  0  0  0  0
   -6.5767    1.8794    6.4708 C   0  0  0  0  0  0  0  0  0  0  0  0
   -5.4771    2.4847    7.3151 C   0  0  0  0  0  0  0  0  0  0  0  0
   -4.5907    1.5090    7.9425 C   0  0  0  0  0  0  0  0  0  0  0  0
   -3.3497    1.9830    8.6541 C   0  0  0  0  0  0  0  0  0  0  0  0
   -2.4511    0.9579    9.1244 C   0  0  0  0  0  0  0  0  0  0  0  0
   -1.4665    1.2820   10.1990 C   0  0  0  0  0  0  0  0  0  0  0  0
   -1.7761    0.9442   11.5968 C   0  0  0  0  0  0  0  0  0  0  0  0
   -2.8662    1.7735   11.9393 F   0  0  0  0  0  0  0  0  0  0  0  0
   -2.2597   -0.3100   11.8287 F   0  0  0  0  0  0  0  0  0  0  0  0
   -0.8081    1.3538   12.5111 F   0  0  0  0  0  0  0  0  0  0  0  0
   -0.2329    0.7026    9.8943 F   0  0  0  0  0  0  0  0  0  0  0  0
   -1.2310    2.6463   10.1351 F   0  0  0  0  0  0  0  0  0  0  0  0
   -3.2778    0.0035    9.7859 F   0  0  0  0  0  0  0  0  0  0  0  0
   -1.8676    0.2532    8.1064 F   0  0  0  0  0  0  0  0  0  0  0  0
   -2.8250    2.9285    7.7921 F   0  0  0  0  0  0  0  0  0  0  0  0
   -3.8373    2.7648    9.7266 F   0  0  0  0  0  0  0  0  0  0  0  0
   -4.1042    0.6813    6.8954 F   0  0  0  0  0  0  0  0  0  0  0  0
   -5.2771    0.6003    8.7609 F   0  0  0  0  0  0  0  0  0  0  0  0
   -4.7870    3.3761    6.5361 F   0  0  0  0  0  0  0  0  0  0  0  0
   -6.1769    3.2370    8.2997 F   0  0  0  0  0  0  0  0  0  0  0  0
   -6.0336    1.1358    5.4227 F   0  0  0  0  0  0  0  0  0  0  0  0
   -7.2673    0.9146    7.2228 F   0  0  0  0  0  0  0  0  0  0  0  0
   -8.5614    2.5142    5.0190 O   0  0  0  0  0  0  0  0  0  0  0  0
  1  2  2  0
  1  3  1  0
  3  4  1  0
  4  5  1  0
  5  6  1  0
  6  7  1  0
  7  8  1  0
  8  9  1  0
  9 10  1  0
  9 11  1  0
  9 12  1  0
  8 13  1  0
  8 14  1  0
  7 15  1  0
  7 16  1  0
  6 17  1  0
  6 18  1  0
  5 19  1  0
  5 20  1  0
  4 21  1  0
  4 22  1  0
  3 23  1  0
  3 24  1  0
  1 25  1  0
M  END
$$$$
