
     RDKit          3D

 25 24  0  0  0  0  0  0  0  0999 V2000
   -9.0667    2.6412    5.3365 C   0  0  0  0  0  0  0  0  0  0  0  0
   -9.2021    3.8073    5.8276 O   0  0  0  0  0  0  0  0  0  0  0  0
   -7.8507    1.9083    5.6783 C   0  0  0  0  0  0  0  0  0  0  0  0
   -6.8310    2.6491    6.5149 C   0  0  0  0  0  0  0  0  0  0  0  0
   -5.7742    1.8057    7.0656 C   0  0  0  0  0  0  0  0  0  0  0  0
   -4.6593    2.4362    7.8597 C   0  0  0  0  0  0  0  0  0  0  0  0
   -3.7909    1.5319    8.5722 C   0  0  0  0  0  0  0  0  0  0  0  0
   -2.5692    2.0652    9.2448 C   0  0  0  0  0  0  0  0  0  0  0  0
   -1.6713    1.1456    9.9603 C   0  0  0  0  0  0  0  0  0  0  0  0
   -1.2515    0.2143    8.9858 F   0  0  0  0  0  0  0  0  0  0  0  0
   -0.4953    1.6691   10.4117 F   0  0  0  0  0  0  0  0  0  0  0  0
   -2.3138    0.3228   10.8829 F   0  0  0  0  0  0  0  0  0  0  0  0
   -1.7941    2.7678    8.3196 F   0  0  0  0  0  0  0  0  0  0  0  0
   -2.9908    3.0313   10.1447 F   0  0  0  0  0  0  0  0  0  0  0  0
   -4.5489    1.0821    9.6924 F   0  0  0  0  0  0  0  0  0  0  0  0
   -3.5171    0.3907    7.8679 F   0  0  0  0  0  0  0  0  0  0  0  0
   -4.0629    3.2938    6.9536 F   0  0  0  0  0  0  0  0  0  0  0  0
   -5.3167    3.3180    8.7484 F   0  0  0  0  0  0  0  0  0  0  0  0
   -5.1226    1.2066    5.9544 F   0  0  0  0  0  0  0  0  0  0  0  0
   -6.2738    0.6977    7.7650 F   0  0  0  0  0  0  0  0  0  0  0  0
   -6.3257    3.6734    5.7578 F   0  0  0  0  0  0  0  0  0  0  0  0
   -7.6036    3.2346    7.5566 F   0  0  0  0  0  0  0  0  0  0  0  0
   -7.2803    1.4813    4.4790 F   0  0  0  0  0  0  0  0  0  0  0  0
   -8.1938    0.7044    6.3156 F   0  0  0  0  0  0  0  0  0  0  0  0
  -10.0999    2.2089    4.5377 O   0  0  0  0  0  0  0  0  0  0  0  0
  1  2  2  0
  1  3  1  0
  3  4  1  0
  4  5  1  0
  5  6  1  0
  6  7  1  0
  7  8  1  0
  8  9  1  0
  9 10  1  0
  9 11  1  0
  9 12  1  0
  8 13  1  0
  8 14  1  0
  7 15  1  0
  7 16  1  0
  6 17  1  0
  6 18  1  0
  5 19  1  0
  5 20  1  0
  4 21  1  0
  4 22  1  0
  3 23  1  0
  3 24  1  0
  1 25  1  0
M  END
$$$$
