
     RDKit          3D

 25 24  0  0  0  0  0  0  0  0999 V2000
    0.6298   -8.5543    2.5895 C   0  0  0  0  0  0  0  0  0  0  0  0
    0.3747   -8.6949    3.8282 O   0  0  0  0  0  0  0  0  0  0  0  0
    1.5191   -7.4601    2.2095 C   0  0  0  0  0  0  0  0  0  0  0  0
    1.9903   -6.5564    3.3275 C   0  0  0  0  0  0  0  0  0  0  0  0
    3.0282   -5.6061    2.9391 C   0  0  0  0  0  0  0  0  0  0  0  0
    3.4663   -4.5450    3.9155 C   0  0  0  0  0  0  0  0  0  0  0  0
    4.6930   -3.8547    3.6022 C   0  0  0  0  0  0  0  0  0  0  0  0
    5.9931   -4.5795    3.7195 C   0  0  0  0  0  0  0  0  0  0  0  0
    7.1399   -4.1556    2.9017 C   0  0  0  0  0  0  0  0  0  0  0  0
    6.7943   -4.5076    1.5789 F   0  0  0  0  0  0  0  0  0  0  0  0
    7.3634   -2.8128    2.8137 F   0  0  0  0  0  0  0  0  0  0  0  0
    8.2949   -4.9078    3.1043 F   0  0  0  0  0  0  0  0  0  0  0  0
    6.4102   -4.5805    5.0524 F   0  0  0  0  0  0  0  0  0  0  0  0
    5.7411   -5.9127    3.4369 F   0  0  0  0  0  0  0  0  0  0  0  0
    4.6407   -3.6066    2.1995 F   0  0  0  0  0  0  0  0  0  0  0  0
    4.7616   -2.6088    4.1646 F   0  0  0  0  0  0  0  0  0  0  0  0
    2.3339   -3.7679    4.0768 F   0  0  0  0  0  0  0  0  0  0  0  0
    3.5652   -5.2249    5.1514 F   0  0  0  0  0  0  0  0  0  0  0  0
    2.5094   -4.8785    1.8347 F   0  0  0  0  0  0  0  0  0  0  0  0
    4.1590   -6.2309    2.3936 F   0  0  0  0  0  0  0  0  0  0  0  0
    0.8929   -5.9281    3.8551 F   0  0  0  0  0  0  0  0  0  0  0  0
    2.4763   -7.4588    4.3148 F   0  0  0  0  0  0  0  0  0  0  0  0
    0.8595   -6.7193    1.2286 F   0  0  0  0  0  0  0  0  0  0  0  0
    2.6314   -7.9776    1.5252 F   0  0  0  0  0  0  0  0  0  0  0  0
    0.0312   -9.4668    1.7519 O   0  0  0  0  0  0  0  0  0  0  0  0
  1  2  2  0
  1  3  1  0
  3  4  1  0
  4  5  1  0
  5  6  1  0
  6  7  1  0
  7  8  1  0
  8  9  1  0
  9 10  1  0
  9 11  1  0
  9 12  1  0
  8 13  1  0
  8 14  1  0
  7 15  1  0
  7 16  1  0
  6 17  1  0
  6 18  1  0
  5 19  1  0
  5 20  1  0
  4 21  1  0
  4 22  1  0
  3 23  1  0
  3 24  1  0
  1 25  1  0
M  END
$$$$
