
     RDKit          3D

 25 24  0  0  0  0  0  0  0  0999 V2000
    3.1885  -10.9365    6.3812 C   0  0  0  0  0  0  0  0  0  0  0  0
    2.0789  -10.8938    7.0027 O   0  0  0  0  0  0  0  0  0  0  0  0
    4.0324   -9.7460    6.4362 C   0  0  0  0  0  0  0  0  0  0  0  0
    3.8816   -8.7609    5.2981 C   0  0  0  0  0  0  0  0  0  0  0  0
    4.7686   -7.6041    5.3792 C   0  0  0  0  0  0  0  0  0  0  0  0
    4.6739   -6.5214    4.3352 C   0  0  0  0  0  0  0  0  0  0  0  0
    5.6770   -5.4871    4.3936 C   0  0  0  0  0  0  0  0  0  0  0  0
    5.5800   -4.3180    3.4700 C   0  0  0  0  0  0  0  0  0  0  0  0
    4.8497   -3.1135    3.8936 C   0  0  0  0  0  0  0  0  0  0  0  0
    5.8504   -2.1491    4.1421 F   0  0  0  0  0  0  0  0  0  0  0  0
    4.0691   -2.5104    2.9514 F   0  0  0  0  0  0  0  0  0  0  0  0
    4.2431   -3.2233    5.1429 F   0  0  0  0  0  0  0  0  0  0  0  0
    6.8616   -3.9150    3.0883 F   0  0  0  0  0  0  0  0  0  0  0  0
    4.9996   -4.7748    2.2973 F   0  0  0  0  0  0  0  0  0  0  0  0
    5.4969   -4.8554    5.6586 F   0  0  0  0  0  0  0  0  0  0  0  0
    6.9517   -5.9836    4.4411 F   0  0  0  0  0  0  0  0  0  0  0  0
    4.5681   -7.2251    3.1495 F   0  0  0  0  0  0  0  0  0  0  0  0
    3.3770   -5.9839    4.5038 F   0  0  0  0  0  0  0  0  0  0  0  0
    6.0912   -8.1061    5.2498 F   0  0  0  0  0  0  0  0  0  0  0  0
    4.7831   -7.0202    6.6541 F   0  0  0  0  0  0  0  0  0  0  0  0
    4.0399   -9.4454    4.1217 F   0  0  0  0  0  0  0  0  0  0  0  0
    2.5188   -8.3580    5.3728 F   0  0  0  0  0  0  0  0  0  0  0  0
    5.3532  -10.1854    6.5293 F   0  0  0  0  0  0  0  0  0  0  0  0
    3.8287   -9.0844    7.6585 F   0  0  0  0  0  0  0  0  0  0  0  0
    3.4602  -12.1176    5.7302 O   0  0  0  0  0  0  0  0  0  0  0  0
  1  2  2  0
  1  3  1  0
  3  4  1  0
  4  5  1  0
  5  6  1  0
  6  7  1  0
  7  8  1  0
  8  9  1  0
  9 10  1  0
  9 11  1  0
  9 12  1  0
  8 13  1  0
  8 14  1  0
  7 15  1  0
  7 16  1  0
  6 17  1  0
  6 18  1  0
  5 19  1  0
  5 20  1  0
  4 21  1  0
  4 22  1  0
  3 23  1  0
  3 24  1  0
  1 25  1  0
M  END
$$$$
