
     RDKit          3D

 25 24  0  0  0  0  0  0  0  0999 V2000
    0.9818   -8.9104    2.9838 C   0  0  0  0  0  0  0  0  0  0  0  0
    1.1724   -8.6424    4.2131 O   0  0  0  0  0  0  0  0  0  0  0  0
    0.8131   -7.7828    2.0714 C   0  0  0  0  0  0  0  0  0  0  0  0
    1.3759   -6.4557    2.5302 C   0  0  0  0  0  0  0  0  0  0  0  0
    2.8339   -6.4042    2.5843 C   0  0  0  0  0  0  0  0  0  0  0  0
    3.5148   -5.1549    3.0811 C   0  0  0  0  0  0  0  0  0  0  0  0
    4.9466   -5.0992    2.9187 C   0  0  0  0  0  0  0  0  0  0  0  0
    5.6544   -3.7960    3.0917 C   0  0  0  0  0  0  0  0  0  0  0  0
    7.1012   -3.7136    2.8396 C   0  0  0  0  0  0  0  0  0  0  0  0
    7.6949   -4.4699    3.8734 F   0  0  0  0  0  0  0  0  0  0  0  0
    7.5594   -4.3250    1.7096 F   0  0  0  0  0  0  0  0  0  0  0  0
    7.6482   -2.4513    3.0596 F   0  0  0  0  0  0  0  0  0  0  0  0
    5.0386   -2.8205    2.3044 F   0  0  0  0  0  0  0  0  0  0  0  0
    5.4270   -3.3808    4.3943 F   0  0  0  0  0  0  0  0  0  0  0  0
    5.4809   -5.8501    4.0061 F   0  0  0  0  0  0  0  0  0  0  0  0
    5.3822   -5.7615    1.8029 F   0  0  0  0  0  0  0  0  0  0  0  0
    2.7790   -4.1357    2.5050 F   0  0  0  0  0  0  0  0  0  0  0  0
    3.1531   -5.0774    4.4459 F   0  0  0  0  0  0  0  0  0  0  0  0
    3.2877   -6.5463    1.2456 F   0  0  0  0  0  0  0  0  0  0  0  0
    3.3928   -7.5222    3.2201 F   0  0  0  0  0  0  0  0  0  0  0  0
    0.8590   -5.4752    1.7246 F   0  0  0  0  0  0  0  0  0  0  0  0
    0.8163   -6.2766    3.8263 F   0  0  0  0  0  0  0  0  0  0  0  0
   -0.5526   -7.6693    1.8102 F   0  0  0  0  0  0  0  0  0  0  0  0
    1.3522   -8.1116    0.8167 F   0  0  0  0  0  0  0  0  0  0  0  0
    0.9633  -10.2481    2.6629 O   0  0  0  0  0  0  0  0  0  0  0  0
  1  2  2  0
  1  3  1  0
  3  4  1  0
  4  5  1  0
  5  6  1  0
  6  7  1  0
  7  8  1  0
  8  9  1  0
  9 10  1  0
  9 11  1  0
  9 12  1  0
  8 13  1  0
  8 14  1  0
  7 15  1  0
  7 16  1  0
  6 17  1  0
  6 18  1  0
  5 19  1  0
  5 20  1  0
  4 21  1  0
  4 22  1  0
  3 23  1  0
  3 24  1  0
  1 25  1  0
M  END
$$$$
