
     RDKit          3D

 29 28  0  0  0  0  0  0  0  0999 V2000
   -8.8817  -13.3685   -0.6483 C   0  0  0  0  0  0  0  0  0  0  0  0
   -8.4977  -14.5904   -1.4225 C   0  0  0  0  0  0  0  0  0  0  0  0
   -9.5482  -15.2372   -2.2000 C   0  0  0  0  0  0  0  0  0  0  0  0
   -9.1345  -16.3604   -3.1148 C   0  0  0  0  0  0  0  0  0  0  0  0
  -10.1479  -17.0591   -3.9043 C   0  0  0  0  0  0  0  0  0  0  0  0
  -11.0506  -16.0449   -4.3265 F   0  0  0  0  0  0  0  0  0  0  0  0
  -10.9703  -17.9421   -3.2259 F   0  0  0  0  0  0  0  0  0  0  0  0
   -9.5970  -17.8406   -5.3687 S   0  0  0  0  0  0  0  0  0  0  0  0
  -10.7767  -18.5556   -6.0201 O   0  0  0  0  0  0  0  0  0  0  0  0
   -8.5941  -18.9191   -5.0838 O   0  0  0  0  0  0  0  0  0  0  0  0
   -8.9421  -16.7758   -6.4819 O   0  0  0  0  0  0  0  0  0  0  0  0
   -8.5182  -17.3055   -2.2815 F   0  0  0  0  0  0  0  0  0  0  0  0
   -8.0860  -15.8475   -3.8855 F   0  0  0  0  0  0  0  0  0  0  0  0
  -10.4229  -15.8453   -1.2834 F   0  0  0  0  0  0  0  0  0  0  0  0
  -10.3791  -14.4176   -2.9485 F   0  0  0  0  0  0  0  0  0  0  0  0
   -8.0599  -15.5247   -0.4644 F   0  0  0  0  0  0  0  0  0  0  0  0
   -7.3507  -14.2690   -2.1388 F   0  0  0  0  0  0  0  0  0  0  0  0
   -7.8552  -12.5772    0.0271 C   0  0  0  0  0  0  0  0  0  0  0  0
   -8.3029  -11.1990    0.4108 C   0  0  0  0  0  0  0  0  0  0  0  0
   -7.3953  -10.2612    1.0736 C   0  0  0  0  0  0  0  0  0  0  0  0
   -7.8942   -9.0399    1.4337 F   0  0  0  0  0  0  0  0  0  0  0  0
   -6.2884   -9.9797    0.2407 F   0  0  0  0  0  0  0  0  0  0  0  0
   -6.7890  -10.8238    2.2139 F   0  0  0  0  0  0  0  0  0  0  0  0
   -9.4369  -11.3374    1.2374 F   0  0  0  0  0  0  0  0  0  0  0  0
   -8.7844  -10.5421   -0.7552 F   0  0  0  0  0  0  0  0  0  0  0  0
   -7.3411  -13.2247    1.1604 F   0  0  0  0  0  0  0  0  0  0  0  0
   -6.7042  -12.3299   -0.7464 F   0  0  0  0  0  0  0  0  0  0  0  0
   -9.7451  -13.8515    0.3832 F   0  0  0  0  0  0  0  0  0  0  0  0
   -9.6898  -12.5625   -1.4087 F   0  0  0  0  0  0  0  0  0  0  0  0
  1  2  1  0
  2  3  1  0
  3  4  1  0
  4  5  1  0
  5  6  1  0
  5  7  1  0
  5  8  1  0
  8  9  2  0
  8 10  2  0
  8 11  1  0
  4 12  1  0
  4 13  1  0
  3 14  1  0
  3 15  1  0
  2 16  1  0
  2 17  1  0
  1 18  1  0
 18 19  1  0
 19 20  1  0
 20 21  1  0
 20 22  1  0
 20 23  1  0
 19 24  1  0
 19 25  1  0
 18 26  1  0
 18 27  1  0
  1 28  1  0
  1 29  1  0
M  END
$$$$
