
     RDKit          3D

 29 28  0  0  0  0  0  0  0  0999 V2000
  -16.4547  -15.0368    4.7069 C   0  0  0  0  0  0  0  0  0  0  0  0
  -16.4990  -16.4037    4.0988 C   0  0  0  0  0  0  0  0  0  0  0  0
  -15.3640  -16.7958    3.2715 C   0  0  0  0  0  0  0  0  0  0  0  0
  -15.5135  -18.0481    2.4474 C   0  0  0  0  0  0  0  0  0  0  0  0
  -14.4918  -18.3876    1.4579 C   0  0  0  0  0  0  0  0  0  0  0  0
  -13.2943  -18.5541    2.2063 F   0  0  0  0  0  0  0  0  0  0  0  0
  -14.1520  -17.4027    0.5463 F   0  0  0  0  0  0  0  0  0  0  0  0
  -14.7155  -19.8864    0.5850 S   0  0  0  0  0  0  0  0  0  0  0  0
  -15.9879  -19.7856   -0.2505 O   0  0  0  0  0  0  0  0  0  0  0  0
  -14.9458  -21.0439    1.5110 O   0  0  0  0  0  0  0  0  0  0  0  0
  -13.4401  -20.2567   -0.4338 O   0  0  0  0  0  0  0  0  0  0  0  0
  -16.7310  -17.8977    1.7673 F   0  0  0  0  0  0  0  0  0  0  0  0
  -15.7589  -19.0731    3.3668 F   0  0  0  0  0  0  0  0  0  0  0  0
  -15.1781  -15.7786    2.3197 F   0  0  0  0  0  0  0  0  0  0  0  0
  -14.1283  -16.8898    3.8933 F   0  0  0  0  0  0  0  0  0  0  0  0
  -17.6364  -16.4132    3.2689 F   0  0  0  0  0  0  0  0  0  0  0  0
  -16.8128  -17.2897    5.1228 F   0  0  0  0  0  0  0  0  0  0  0  0
  -17.4834  -14.6262    5.6604 C   0  0  0  0  0  0  0  0  0  0  0  0
  -17.4730  -13.1603    5.9737 C   0  0  0  0  0  0  0  0  0  0  0  0
  -18.4240  -12.5783    6.9222 C   0  0  0  0  0  0  0  0  0  0  0  0
  -18.4122  -13.0508    8.2055 F   0  0  0  0  0  0  0  0  0  0  0  0
  -19.7485  -12.7704    6.4675 F   0  0  0  0  0  0  0  0  0  0  0  0
  -18.3197  -11.1750    6.9867 F   0  0  0  0  0  0  0  0  0  0  0  0
  -17.6211  -12.4662    4.7552 F   0  0  0  0  0  0  0  0  0  0  0  0
  -16.1741  -12.8083    6.4339 F   0  0  0  0  0  0  0  0  0  0  0  0
  -18.7719  -14.9983    5.2494 F   0  0  0  0  0  0  0  0  0  0  0  0
  -17.3722  -15.2204    6.9328 F   0  0  0  0  0  0  0  0  0  0  0  0
  -16.5715  -14.1441    3.5968 F   0  0  0  0  0  0  0  0  0  0  0  0
  -15.2035  -14.7833    5.2078 F   0  0  0  0  0  0  0  0  0  0  0  0
  1  2  1  0
  2  3  1  0
  3  4  1  0
  4  5  1  0
  5  6  1  0
  5  7  1  0
  5  8  1  0
  8  9  2  0
  8 10  2  0
  8 11  1  0
  4 12  1  0
  4 13  1  0
  3 14  1  0
  3 15  1  0
  2 16  1  0
  2 17  1  0
  1 18  1  0
 18 19  1  0
 19 20  1  0
 20 21  1  0
 20 22  1  0
 20 23  1  0
 19 24  1  0
 19 25  1  0
 18 26  1  0
 18 27  1  0
  1 28  1  0
  1 29  1  0
M  END
$$$$
