
     RDKit          3D

 29 28  0  0  0  0  0  0  0  0999 V2000
   -8.2725    0.6131   -3.6956 C   0  0  0  0  0  0  0  0  0  0  0  0
   -7.2514    1.3029   -2.8062 C   0  0  0  0  0  0  0  0  0  0  0  0
   -5.8867    1.4575   -3.2988 C   0  0  0  0  0  0  0  0  0  0  0  0
   -5.4812    2.8522   -3.6266 C   0  0  0  0  0  0  0  0  0  0  0  0
   -4.3011    3.1167   -4.4584 C   0  0  0  0  0  0  0  0  0  0  0  0
   -4.3430    2.6477   -5.7432 F   0  0  0  0  0  0  0  0  0  0  0  0
   -3.1241    2.5965   -3.9112 F   0  0  0  0  0  0  0  0  0  0  0  0
   -3.9734    4.8821   -4.6059 S   0  0  0  0  0  0  0  0  0  0  0  0
   -2.6523    5.1411   -5.2556 O   0  0  0  0  0  0  0  0  0  0  0  0
   -3.9779    5.5263   -3.2658 O   0  0  0  0  0  0  0  0  0  0  0  0
   -5.1976    5.5527   -5.5521 O   0  0  0  0  0  0  0  0  0  0  0  0
   -5.3422    3.5886   -2.4227 F   0  0  0  0  0  0  0  0  0  0  0  0
   -6.5875    3.4967   -4.2352 F   0  0  0  0  0  0  0  0  0  0  0  0
   -5.6021    0.5836   -4.3374 F   0  0  0  0  0  0  0  0  0  0  0  0
   -4.9542    1.0720   -2.2851 F   0  0  0  0  0  0  0  0  0  0  0  0
   -7.7826    2.6100   -2.6567 F   0  0  0  0  0  0  0  0  0  0  0  0
   -7.2871    0.7620   -1.5514 F   0  0  0  0  0  0  0  0  0  0  0  0
   -9.6857    0.8449   -3.4187 C   0  0  0  0  0  0  0  0  0  0  0  0
  -10.6872    0.2246   -4.3213 C   0  0  0  0  0  0  0  0  0  0  0  0
  -12.1249    0.2819   -3.9780 C   0  0  0  0  0  0  0  0  0  0  0  0
  -12.9845   -0.3815   -4.8115 F   0  0  0  0  0  0  0  0  0  0  0  0
  -12.3573   -0.2893   -2.7093 F   0  0  0  0  0  0  0  0  0  0  0  0
  -12.4921    1.6246   -3.8765 F   0  0  0  0  0  0  0  0  0  0  0  0
  -10.3717   -1.1336   -4.4970 F   0  0  0  0  0  0  0  0  0  0  0  0
  -10.5399    0.7689   -5.5986 F   0  0  0  0  0  0  0  0  0  0  0  0
   -9.9446    0.1966   -2.1672 F   0  0  0  0  0  0  0  0  0  0  0  0
  -10.0171    2.1642   -3.1588 F   0  0  0  0  0  0  0  0  0  0  0  0
   -7.8997    0.9637   -5.0117 F   0  0  0  0  0  0  0  0  0  0  0  0
   -8.0480   -0.7723   -3.6582 F   0  0  0  0  0  0  0  0  0  0  0  0
  1  2  1  0
  2  3  1  0
  3  4  1  0
  4  5  1  0
  5  6  1  0
  5  7  1  0
  5  8  1  0
  8  9  2  0
  8 10  2  0
  8 11  1  0
  4 12  1  0
  4 13  1  0
  3 14  1  0
  3 15  1  0
  2 16  1  0
  2 17  1  0
  1 18  1  0
 18 19  1  0
 19 20  1  0
 20 21  1  0
 20 22  1  0
 20 23  1  0
 19 24  1  0
 19 25  1  0
 18 26  1  0
 18 27  1  0
  1 28  1  0
  1 29  1  0
M  END
$$$$
