
     RDKit          3D

 29 28  0  0  0  0  0  0  0  0999 V2000
   -7.8151    2.0842   -4.8279 C   0  0  0  0  0  0  0  0  0  0  0  0
   -6.5740    2.2228   -3.9619 C   0  0  0  0  0  0  0  0  0  0  0  0
   -6.2468    1.1469   -3.0323 C   0  0  0  0  0  0  0  0  0  0  0  0
   -5.2120    1.4767   -2.0138 C   0  0  0  0  0  0  0  0  0  0  0  0
   -5.1236    0.7205   -0.7589 C   0  0  0  0  0  0  0  0  0  0  0  0
   -4.5460   -0.5178   -0.8326 F   0  0  0  0  0  0  0  0  0  0  0  0
   -6.3706    0.5138   -0.1611 F   0  0  0  0  0  0  0  0  0  0  0  0
   -4.1806    1.6127    0.4903 S   0  0  0  0  0  0  0  0  0  0  0  0
   -2.7713    1.8456    0.0494 O   0  0  0  0  0  0  0  0  0  0  0  0
   -4.1589    0.8524    1.7679 O   0  0  0  0  0  0  0  0  0  0  0  0
   -4.9370    3.0994    0.7378 O   0  0  0  0  0  0  0  0  0  0  0  0
   -5.3049    2.8541   -1.6892 F   0  0  0  0  0  0  0  0  0  0  0  0
   -3.9435    1.4118   -2.6435 F   0  0  0  0  0  0  0  0  0  0  0  0
   -5.9612   -0.0423   -3.6863 F   0  0  0  0  0  0  0  0  0  0  0  0
   -7.3932    0.8166   -2.2434 F   0  0  0  0  0  0  0  0  0  0  0  0
   -5.5210    2.2773   -4.9113 F   0  0  0  0  0  0  0  0  0  0  0  0
   -6.5652    3.4475   -3.3549 F   0  0  0  0  0  0  0  0  0  0  0  0
   -8.2838    3.2662   -5.5425 C   0  0  0  0  0  0  0  0  0  0  0  0
   -9.5329    3.1552   -6.3363 C   0  0  0  0  0  0  0  0  0  0  0  0
  -10.0352    4.3258   -7.0883 C   0  0  0  0  0  0  0  0  0  0  0  0
   -9.2202    4.8248   -8.0684 F   0  0  0  0  0  0  0  0  0  0  0  0
  -11.2354    4.0097   -7.7587 F   0  0  0  0  0  0  0  0  0  0  0  0
  -10.3519    5.3271   -6.1689 F   0  0  0  0  0  0  0  0  0  0  0  0
  -10.5795    2.7413   -5.4946 F   0  0  0  0  0  0  0  0  0  0  0  0
   -9.3978    2.1019   -7.2428 F   0  0  0  0  0  0  0  0  0  0  0  0
   -8.6378    4.2146   -4.5283 F   0  0  0  0  0  0  0  0  0  0  0  0
   -7.3077    3.9333   -6.2636 F   0  0  0  0  0  0  0  0  0  0  0  0
   -7.5399    0.9926   -5.6804 F   0  0  0  0  0  0  0  0  0  0  0  0
   -8.8736    1.6120   -4.0358 F   0  0  0  0  0  0  0  0  0  0  0  0
  1  2  1  0
  2  3  1  0
  3  4  1  0
  4  5  1  0
  5  6  1  0
  5  7  1  0
  5  8  1  0
  8  9  2  0
  8 10  2  0
  8 11  1  0
  4 12  1  0
  4 13  1  0
  3 14  1  0
  3 15  1  0
  2 16  1  0
  2 17  1  0
  1 18  1  0
 18 19  1  0
 19 20  1  0
 20 21  1  0
 20 22  1  0
 20 23  1  0
 19 24  1  0
 19 25  1  0
 18 26  1  0
 18 27  1  0
  1 28  1  0
  1 29  1  0
M  END
$$$$
