
     RDKit          3D

 29 28  0  0  0  0  0  0  0  0999 V2000
   -4.6620   -0.5397    0.6351 C   0  0  0  0  0  0  0  0  0  0  0  0
   -4.7551   -0.0602   -0.8041 C   0  0  0  0  0  0  0  0  0  0  0  0
   -5.2539    1.2867   -1.0609 C   0  0  0  0  0  0  0  0  0  0  0  0
   -4.9565    1.8294   -2.4151 C   0  0  0  0  0  0  0  0  0  0  0  0
   -5.4507    3.1505   -2.8214 C   0  0  0  0  0  0  0  0  0  0  0  0
   -5.5260    4.1016   -1.8404 F   0  0  0  0  0  0  0  0  0  0  0  0
   -6.7273    3.1009   -3.3896 F   0  0  0  0  0  0  0  0  0  0  0  0
   -4.4241    3.8768   -4.1116 S   0  0  0  0  0  0  0  0  0  0  0  0
   -4.3536    2.9946   -5.3163 O   0  0  0  0  0  0  0  0  0  0  0  0
   -3.0434    4.1072   -3.6103 O   0  0  0  0  0  0  0  0  0  0  0  0
   -5.1147    5.3529   -4.5450 O   0  0  0  0  0  0  0  0  0  0  0  0
   -5.3700    0.8881   -3.3918 F   0  0  0  0  0  0  0  0  0  0  0  0
   -3.5493    1.8270   -2.5869 F   0  0  0  0  0  0  0  0  0  0  0  0
   -4.8946    2.1784   -0.0613 F   0  0  0  0  0  0  0  0  0  0  0  0
   -6.6832    1.2975   -1.0074 F   0  0  0  0  0  0  0  0  0  0  0  0
   -3.4060   -0.0871   -1.2424 F   0  0  0  0  0  0  0  0  0  0  0  0
   -5.3925   -0.9988   -1.5664 F   0  0  0  0  0  0  0  0  0  0  0  0
   -4.2498   -1.9191    0.8691 C   0  0  0  0  0  0  0  0  0  0  0  0
   -3.8876   -2.3168    2.2523 C   0  0  0  0  0  0  0  0  0  0  0  0
   -3.5440   -3.7246    2.5489 C   0  0  0  0  0  0  0  0  0  0  0  0
   -2.7162   -4.3572    1.6609 F   0  0  0  0  0  0  0  0  0  0  0  0
   -2.8719   -3.8236    3.7851 F   0  0  0  0  0  0  0  0  0  0  0  0
   -4.7342   -4.4396    2.6914 F   0  0  0  0  0  0  0  0  0  0  0  0
   -4.9353   -1.9690    3.1220 F   0  0  0  0  0  0  0  0  0  0  0  0
   -2.8206   -1.5258    2.6830 F   0  0  0  0  0  0  0  0  0  0  0  0
   -5.4097   -2.7181    0.6048 F   0  0  0  0  0  0  0  0  0  0  0  0
   -3.3230   -2.4092   -0.0357 F   0  0  0  0  0  0  0  0  0  0  0  0
   -3.8311    0.4047    1.2768 F   0  0  0  0  0  0  0  0  0  0  0  0
   -5.9044   -0.3495    1.2606 F   0  0  0  0  0  0  0  0  0  0  0  0
  1  2  1  0
  2  3  1  0
  3  4  1  0
  4  5  1  0
  5  6  1  0
  5  7  1  0
  5  8  1  0
  8  9  2  0
  8 10  2  0
  8 11  1  0
  4 12  1  0
  4 13  1  0
  3 14  1  0
  3 15  1  0
  2 16  1  0
  2 17  1  0
  1 18  1  0
 18 19  1  0
 19 20  1  0
 20 21  1  0
 20 22  1  0
 20 23  1  0
 19 24  1  0
 19 25  1  0
 18 26  1  0
 18 27  1  0
  1 28  1  0
  1 29  1  0
M  END
$$$$
