
     RDKit          3D

 29 28  0  0  0  0  0  0  0  0999 V2000
   -5.5694    0.2750   -0.7517 C   0  0  0  0  0  0  0  0  0  0  0  0
   -5.4770    0.7859   -2.1801 C   0  0  0  0  0  0  0  0  0  0  0  0
   -6.6991    1.2239   -2.8460 C   0  0  0  0  0  0  0  0  0  0  0  0
   -6.5640    2.4438   -3.6889 C   0  0  0  0  0  0  0  0  0  0  0  0
   -7.7410    3.0641   -4.3088 C   0  0  0  0  0  0  0  0  0  0  0  0
   -8.8495    3.1949   -3.5171 F   0  0  0  0  0  0  0  0  0  0  0  0
   -8.1770    2.3816   -5.4486 F   0  0  0  0  0  0  0  0  0  0  0  0
   -7.3813    4.7263   -4.9035 S   0  0  0  0  0  0  0  0  0  0  0  0
   -6.1539    4.7486   -5.7564 O   0  0  0  0  0  0  0  0  0  0  0  0
   -7.1824    5.6564   -3.7607 O   0  0  0  0  0  0  0  0  0  0  0  0
   -8.7017    5.2396   -5.8182 O   0  0  0  0  0  0  0  0  0  0  0  0
   -5.6104    2.1977   -4.7094 F   0  0  0  0  0  0  0  0  0  0  0  0
   -5.9125    3.4381   -2.9164 F   0  0  0  0  0  0  0  0  0  0  0  0
   -7.7678    1.3238   -1.9677 F   0  0  0  0  0  0  0  0  0  0  0  0
   -7.1341    0.2271   -3.7749 F   0  0  0  0  0  0  0  0  0  0  0  0
   -4.6437    1.9282   -2.0622 F   0  0  0  0  0  0  0  0  0  0  0  0
   -4.7626   -0.0946   -2.9434 F   0  0  0  0  0  0  0  0  0  0  0  0
   -4.4107   -0.4169   -0.1985 C   0  0  0  0  0  0  0  0  0  0  0  0
   -4.4364   -0.7874    1.2384 C   0  0  0  0  0  0  0  0  0  0  0  0
   -3.9227   -2.1060    1.6693 C   0  0  0  0  0  0  0  0  0  0  0  0
   -4.6841   -3.1981    1.3508 F   0  0  0  0  0  0  0  0  0  0  0  0
   -2.6690   -2.3694    1.0789 F   0  0  0  0  0  0  0  0  0  0  0  0
   -3.7045   -2.0560    3.0469 F   0  0  0  0  0  0  0  0  0  0  0  0
   -5.7554   -0.6967    1.7150 F   0  0  0  0  0  0  0  0  0  0  0  0
   -3.7512    0.1871    1.9666 F   0  0  0  0  0  0  0  0  0  0  0  0
   -4.3745   -1.6916   -0.8523 F   0  0  0  0  0  0  0  0  0  0  0  0
   -3.1877    0.1388   -0.5350 F   0  0  0  0  0  0  0  0  0  0  0  0
   -5.9604    1.3988    0.0086 F   0  0  0  0  0  0  0  0  0  0  0  0
   -6.6750   -0.5835   -0.6450 F   0  0  0  0  0  0  0  0  0  0  0  0
  1  2  1  0
  2  3  1  0
  3  4  1  0
  4  5  1  0
  5  6  1  0
  5  7  1  0
  5  8  1  0
  8  9  2  0
  8 10  2  0
  8 11  1  0
  4 12  1  0
  4 13  1  0
  3 14  1  0
  3 15  1  0
  2 16  1  0
  2 17  1  0
  1 18  1  0
 18 19  1  0
 19 20  1  0
 20 21  1  0
 20 22  1  0
 20 23  1  0
 19 24  1  0
 19 25  1  0
 18 26  1  0
 18 27  1  0
  1 28  1  0
  1 29  1  0
M  END
$$$$
