
     RDKit          3D

 29 28  0  0  0  0  0  0  0  0999 V2000
   -4.7880   -0.8350   -0.4854 C   0  0  0  0  0  0  0  0  0  0  0  0
   -5.3262    0.5265   -0.8934 C   0  0  0  0  0  0  0  0  0  0  0  0
   -5.3187    0.8858   -2.3075 C   0  0  0  0  0  0  0  0  0  0  0  0
   -6.3293    1.9013   -2.7129 C   0  0  0  0  0  0  0  0  0  0  0  0
   -6.3503    2.4382   -4.0788 C   0  0  0  0  0  0  0  0  0  0  0  0
   -6.6689    1.5567   -5.0757 F   0  0  0  0  0  0  0  0  0  0  0  0
   -5.1288    3.0029   -4.4586 F   0  0  0  0  0  0  0  0  0  0  0  0
   -7.5291    3.7907   -4.2438 S   0  0  0  0  0  0  0  0  0  0  0  0
   -7.2454    4.8861   -3.2669 O   0  0  0  0  0  0  0  0  0  0  0  0
   -8.9158    3.3029   -4.0207 O   0  0  0  0  0  0  0  0  0  0  0  0
   -7.3958    4.3975   -5.8115 O   0  0  0  0  0  0  0  0  0  0  0  0
   -6.2718    2.9960   -1.8131 F   0  0  0  0  0  0  0  0  0  0  0  0
   -7.6153    1.3697   -2.4416 F   0  0  0  0  0  0  0  0  0  0  0  0
   -5.3533   -0.2289   -3.1318 F   0  0  0  0  0  0  0  0  0  0  0  0
   -4.0746    1.5036   -2.6486 F   0  0  0  0  0  0  0  0  0  0  0  0
   -6.6862    0.4705   -0.4930 F   0  0  0  0  0  0  0  0  0  0  0  0
   -4.7685    1.4999   -0.1124 F   0  0  0  0  0  0  0  0  0  0  0  0
   -4.5065   -1.0617    0.9277 C   0  0  0  0  0  0  0  0  0  0  0  0
   -4.1340   -2.4329    1.3563 C   0  0  0  0  0  0  0  0  0  0  0  0
   -3.6104   -2.6623    2.7206 C   0  0  0  0  0  0  0  0  0  0  0  0
   -4.4264   -2.3093    3.7614 F   0  0  0  0  0  0  0  0  0  0  0  0
   -3.3492   -4.0326    2.9301 F   0  0  0  0  0  0  0  0  0  0  0  0
   -2.3821   -2.0083    2.8282 F   0  0  0  0  0  0  0  0  0  0  0  0
   -3.1758   -2.9500    0.4678 F   0  0  0  0  0  0  0  0  0  0  0  0
   -5.2359   -3.2730    1.1841 F   0  0  0  0  0  0  0  0  0  0  0  0
   -3.3197   -0.3097    1.2097 F   0  0  0  0  0  0  0  0  0  0  0  0
   -5.4340   -0.5154    1.7990 F   0  0  0  0  0  0  0  0  0  0  0  0
   -5.7066   -1.7621   -1.0245 F   0  0  0  0  0  0  0  0  0  0  0  0
   -3.6115   -1.0950   -1.2060 F   0  0  0  0  0  0  0  0  0  0  0  0
  1  2  1  0
  2  3  1  0
  3  4  1  0
  4  5  1  0
  5  6  1  0
  5  7  1  0
  5  8  1  0
  8  9  2  0
  8 10  2  0
  8 11  1  0
  4 12  1  0
  4 13  1  0
  3 14  1  0
  3 15  1  0
  2 16  1  0
  2 17  1  0
  1 18  1  0
 18 19  1  0
 19 20  1  0
 20 21  1  0
 20 22  1  0
 20 23  1  0
 19 24  1  0
 19 25  1  0
 18 26  1  0
 18 27  1  0
  1 28  1  0
  1 29  1  0
M  END
$$$$
