
     RDKit          3D

 29 28  0  0  0  0  0  0  0  0999 V2000
   -7.3332    3.4645   -4.9965 C   0  0  0  0  0  0  0  0  0  0  0  0
   -6.0983    2.8356   -4.3727 C   0  0  0  0  0  0  0  0  0  0  0  0
   -6.2735    1.7236   -3.4444 C   0  0  0  0  0  0  0  0  0  0  0  0
   -5.1982    1.5673   -2.4264 C   0  0  0  0  0  0  0  0  0  0  0  0
   -5.4209    0.7718   -1.2131 C   0  0  0  0  0  0  0  0  0  0  0  0
   -5.1878   -0.5728   -1.3141 F   0  0  0  0  0  0  0  0  0  0  0  0
   -6.7245    0.8869   -0.7206 F   0  0  0  0  0  0  0  0  0  0  0  0
   -4.3856    1.3339    0.1500 S   0  0  0  0  0  0  0  0  0  0  0  0
   -2.9347    1.2766   -0.2051 O   0  0  0  0  0  0  0  0  0  0  0  0
   -4.6126    0.4950    1.3565 O   0  0  0  0  0  0  0  0  0  0  0  0
   -4.8104    2.9297    0.4913 O   0  0  0  0  0  0  0  0  0  0  0  0
   -4.7455    2.8517   -2.0308 F   0  0  0  0  0  0  0  0  0  0  0  0
   -4.0532    1.0437   -3.0779 F   0  0  0  0  0  0  0  0  0  0  0  0
   -6.5360    0.5299   -4.0999 F   0  0  0  0  0  0  0  0  0  0  0  0
   -7.4488    1.9260   -2.6550 F   0  0  0  0  0  0  0  0  0  0  0  0
   -5.3934    2.3255   -5.4934 F   0  0  0  0  0  0  0  0  0  0  0  0
   -5.2885    3.8104   -3.8606 F   0  0  0  0  0  0  0  0  0  0  0  0
   -7.1920    4.7789   -5.6129 C   0  0  0  0  0  0  0  0  0  0  0  0
   -8.4146    5.5984   -5.8028 C   0  0  0  0  0  0  0  0  0  0  0  0
   -8.2980    7.0061   -6.2418 C   0  0  0  0  0  0  0  0  0  0  0  0
   -7.6474    7.2308   -7.4251 F   0  0  0  0  0  0  0  0  0  0  0  0
   -9.5743    7.5765   -6.4306 F   0  0  0  0  0  0  0  0  0  0  0  0
   -7.6929    7.7311   -5.2140 F   0  0  0  0  0  0  0  0  0  0  0  0
   -9.1516    5.6123   -4.6062 F   0  0  0  0  0  0  0  0  0  0  0  0
   -9.2573    4.9468   -6.7056 F   0  0  0  0  0  0  0  0  0  0  0  0
   -6.4297    5.5601   -4.6844 F   0  0  0  0  0  0  0  0  0  0  0  0
   -6.4088    4.8030   -6.7547 F   0  0  0  0  0  0  0  0  0  0  0  0
   -7.8273    2.4845   -5.8850 F   0  0  0  0  0  0  0  0  0  0  0  0
   -8.3417    3.5513   -4.0236 F   0  0  0  0  0  0  0  0  0  0  0  0
  1  2  1  0
  2  3  1  0
  3  4  1  0
  4  5  1  0
  5  6  1  0
  5  7  1  0
  5  8  1  0
  8  9  2  0
  8 10  2  0
  8 11  1  0
  4 12  1  0
  4 13  1  0
  3 14  1  0
  3 15  1  0
  2 16  1  0
  2 17  1  0
  1 18  1  0
 18 19  1  0
 19 20  1  0
 20 21  1  0
 20 22  1  0
 20 23  1  0
 19 24  1  0
 19 25  1  0
 18 26  1  0
 18 27  1  0
  1 28  1  0
  1 29  1  0
M  END
$$$$
