
     RDKit          3D

 29 28  0  0  0  0  0  0  0  0999 V2000
   -4.8787    3.5367   -4.3018 C   0  0  0  0  0  0  0  0  0  0  0  0
   -4.9685    5.0491   -4.1822 C   0  0  0  0  0  0  0  0  0  0  0  0
   -4.2522    5.8706   -5.1523 C   0  0  0  0  0  0  0  0  0  0  0  0
   -4.7135    7.2824   -5.2564 C   0  0  0  0  0  0  0  0  0  0  0  0
   -3.9600    8.2637   -6.0462 C   0  0  0  0  0  0  0  0  0  0  0  0
   -3.7858    7.9749   -7.3723 F   0  0  0  0  0  0  0  0  0  0  0  0
   -2.6752    8.4928   -5.5441 F   0  0  0  0  0  0  0  0  0  0  0  0
   -4.7409    9.8870   -6.0105 S   0  0  0  0  0  0  0  0  0  0  0  0
   -6.1746    9.8137   -6.4274 O   0  0  0  0  0  0  0  0  0  0  0  0
   -4.0301   10.8267   -6.9174 O   0  0  0  0  0  0  0  0  0  0  0  0
   -4.6522   10.4630   -4.4282 O   0  0  0  0  0  0  0  0  0  0  0  0
   -4.8858    7.8103   -3.9514 F   0  0  0  0  0  0  0  0  0  0  0  0
   -6.0448    7.2718   -5.7434 F   0  0  0  0  0  0  0  0  0  0  0  0
   -4.1742    5.2639   -6.3969 F   0  0  0  0  0  0  0  0  0  0  0  0
   -2.8808    5.9988   -4.7668 F   0  0  0  0  0  0  0  0  0  0  0  0
   -6.3510    5.3073   -4.3692 F   0  0  0  0  0  0  0  0  0  0  0  0
   -4.7095    5.4297   -2.8951 F   0  0  0  0  0  0  0  0  0  0  0  0
   -5.6425    2.7310   -3.3558 C   0  0  0  0  0  0  0  0  0  0  0  0
   -5.4951    1.2554   -3.4138 C   0  0  0  0  0  0  0  0  0  0  0  0
   -5.9711    0.4220   -2.2882 C   0  0  0  0  0  0  0  0  0  0  0  0
   -5.3014    0.5488   -1.1011 F   0  0  0  0  0  0  0  0  0  0  0  0
   -7.3097    0.7325   -1.9696 F   0  0  0  0  0  0  0  0  0  0  0  0
   -5.9662   -0.9103   -2.7042 F   0  0  0  0  0  0  0  0  0  0  0  0
   -4.1404    0.9339   -3.6047 F   0  0  0  0  0  0  0  0  0  0  0  0
   -6.1155    0.7865   -4.5734 F   0  0  0  0  0  0  0  0  0  0  0  0
   -5.1136    3.0503   -2.0628 F   0  0  0  0  0  0  0  0  0  0  0  0
   -6.9771    3.0818   -3.2400 F   0  0  0  0  0  0  0  0  0  0  0  0
   -5.1980    3.2621   -5.6497 F   0  0  0  0  0  0  0  0  0  0  0  0
   -3.5322    3.1508   -4.2074 F   0  0  0  0  0  0  0  0  0  0  0  0
  1  2  1  0
  2  3  1  0
  3  4  1  0
  4  5  1  0
  5  6  1  0
  5  7  1  0
  5  8  1  0
  8  9  2  0
  8 10  2  0
  8 11  1  0
  4 12  1  0
  4 13  1  0
  3 14  1  0
  3 15  1  0
  2 16  1  0
  2 17  1  0
  1 18  1  0
 18 19  1  0
 19 20  1  0
 20 21  1  0
 20 22  1  0
 20 23  1  0
 19 24  1  0
 19 25  1  0
 18 26  1  0
 18 27  1  0
  1 28  1  0
  1 29  1  0
M  END
$$$$
