
     RDKit          3D

 29 28  0  0  0  0  0  0  0  0999 V2000
   -8.4519    1.7401   -4.2195 C   0  0  0  0  0  0  0  0  0  0  0  0
   -7.1236    1.1003   -3.8507 C   0  0  0  0  0  0  0  0  0  0  0  0
   -6.3146    1.7215   -2.8073 C   0  0  0  0  0  0  0  0  0  0  0  0
   -4.9356    1.1792   -2.6619 C   0  0  0  0  0  0  0  0  0  0  0  0
   -3.9458    1.8574   -1.8164 C   0  0  0  0  0  0  0  0  0  0  0  0
   -3.7642    3.1946   -2.0428 F   0  0  0  0  0  0  0  0  0  0  0  0
   -2.6719    1.2885   -1.9096 F   0  0  0  0  0  0  0  0  0  0  0  0
   -4.3599    1.7218   -0.0682 S   0  0  0  0  0  0  0  0  0  0  0  0
   -3.1513    1.4220    0.7588 O   0  0  0  0  0  0  0  0  0  0  0  0
   -5.3620    0.6448    0.1475 O   0  0  0  0  0  0  0  0  0  0  0  0
   -5.0130    3.1982    0.4191 O   0  0  0  0  0  0  0  0  0  0  0  0
   -4.3674    1.0085   -3.9500 F   0  0  0  0  0  0  0  0  0  0  0  0
   -5.0388   -0.1606   -2.2102 F   0  0  0  0  0  0  0  0  0  0  0  0
   -6.9769    1.7705   -1.5898 F   0  0  0  0  0  0  0  0  0  0  0  0
   -6.0963    3.1013   -3.1141 F   0  0  0  0  0  0  0  0  0  0  0  0
   -7.5031   -0.1783   -3.3670 F   0  0  0  0  0  0  0  0  0  0  0  0
   -6.3989    0.8486   -4.9819 F   0  0  0  0  0  0  0  0  0  0  0  0
   -8.6185    2.2281   -5.5838 C   0  0  0  0  0  0  0  0  0  0  0  0
   -9.7780    3.1070   -5.8766 C   0  0  0  0  0  0  0  0  0  0  0  0
  -10.0296    3.5587   -7.2625 C   0  0  0  0  0  0  0  0  0  0  0  0
  -10.2802    2.5856   -8.1920 F   0  0  0  0  0  0  0  0  0  0  0  0
  -11.1650    4.3942   -7.3158 F   0  0  0  0  0  0  0  0  0  0  0  0
   -8.9471    4.3424   -7.6652 F   0  0  0  0  0  0  0  0  0  0  0  0
   -9.6892    4.2666   -5.0877 F   0  0  0  0  0  0  0  0  0  0  0  0
  -10.9415    2.4831   -5.4220 F   0  0  0  0  0  0  0  0  0  0  0  0
   -7.5000    3.0913   -5.8236 F   0  0  0  0  0  0  0  0  0  0  0  0
   -8.4808    1.2621   -6.5665 F   0  0  0  0  0  0  0  0  0  0  0  0
   -9.4263    0.7881   -3.8473 F   0  0  0  0  0  0  0  0  0  0  0  0
   -8.7008    2.8104   -3.3458 F   0  0  0  0  0  0  0  0  0  0  0  0
  1  2  1  0
  2  3  1  0
  3  4  1  0
  4  5  1  0
  5  6  1  0
  5  7  1  0
  5  8  1  0
  8  9  2  0
  8 10  2  0
  8 11  1  0
  4 12  1  0
  4 13  1  0
  3 14  1  0
  3 15  1  0
  2 16  1  0
  2 17  1  0
  1 18  1  0
 18 19  1  0
 19 20  1  0
 20 21  1  0
 20 22  1  0
 20 23  1  0
 19 24  1  0
 19 25  1  0
 18 26  1  0
 18 27  1  0
  1 28  1  0
  1 29  1  0
M  END
$$$$
