
     RDKit          3D

  4  3  0  0  0  0  0  0  0  0999 V2000
   -1.8264   -3.1608  -11.0778 C   0  0  0  0  0  0  0  0  0  0  0  0
   -2.2258   -3.5988  -12.4837 C   0  0  0  0  0  0  0  0  0  0  0  0
   -2.0834   -2.2914  -13.6548 Cl  0  0  0  0  0  0  0  0  0  0  0  0
   -1.8213   -4.5135   -9.9386 Cl  0  0  0  0  0  0  0  0  0  0  0  0
  1  2  1  0
  2  3  1  0
  1  4  1  0
M  END
$$$$
