
     RDKit          3D

 29 28  0  0  0  0  0  0  0  0999 V2000
    7.4742   -8.9341   -5.7119 C   0  0  0  0  0  0  0  0  0  0  0  0
    8.7187   -8.1649   -5.4664 C   0  0  0  0  0  0  0  0  0  0  0  0
    9.2278   -7.1916   -6.4554 C   0  0  0  0  0  0  0  0  0  0  0  0
   10.5189   -6.5271   -6.1854 C   0  0  0  0  0  0  0  0  0  0  0  0
   11.4569   -6.2617   -7.2958 C   0  0  0  0  0  0  0  0  0  0  0  0
   10.8300   -5.2634   -8.0833 F   0  0  0  0  0  0  0  0  0  0  0  0
   11.5121   -7.3559   -8.1764 F   0  0  0  0  0  0  0  0  0  0  0  0
   13.0469   -5.6694   -6.9450 S   0  0  0  0  0  0  0  0  0  0  0  0
   13.0733   -4.5708   -5.9220 O   0  0  0  0  0  0  0  0  0  0  0  0
   13.6829   -5.0467   -8.1855 O   0  0  0  0  0  0  0  0  0  0  0  0
   14.1045   -6.8643   -6.4592 O   0  0  0  0  0  0  0  0  0  0  0  0
   11.2174   -7.2646   -5.2209 F   0  0  0  0  0  0  0  0  0  0  0  0
   10.2603   -5.2400   -5.6409 F   0  0  0  0  0  0  0  0  0  0  0  0
    8.2753   -6.1281   -6.4388 F   0  0  0  0  0  0  0  0  0  0  0  0
    9.0899   -7.7684   -7.6950 F   0  0  0  0  0  0  0  0  0  0  0  0
    9.7216   -9.1271   -5.2153 F   0  0  0  0  0  0  0  0  0  0  0  0
    8.5166   -7.4587   -4.2712 F   0  0  0  0  0  0  0  0  0  0  0  0
    7.3082  -10.2185   -4.9997 C   0  0  0  0  0  0  0  0  0  0  0  0
    6.2779  -11.1877   -5.4961 C   0  0  0  0  0  0  0  0  0  0  0  0
    6.1757  -12.5173   -4.8741 C   0  0  0  0  0  0  0  0  0  0  0  0
    6.0006  -12.2841   -3.4787 F   0  0  0  0  0  0  0  0  0  0  0  0
    7.4083  -13.1848   -4.9295 F   0  0  0  0  0  0  0  0  0  0  0  0
    5.1298  -13.2981   -5.2733 F   0  0  0  0  0  0  0  0  0  0  0  0
    4.9998  -10.6100   -5.4444 F   0  0  0  0  0  0  0  0  0  0  0  0
    6.5101  -11.3584   -6.8775 F   0  0  0  0  0  0  0  0  0  0  0  0
    7.0752  -10.0911   -3.6288 F   0  0  0  0  0  0  0  0  0  0  0  0
    8.5302  -10.9515   -5.0748 F   0  0  0  0  0  0  0  0  0  0  0  0
    6.3498   -8.1167   -5.6670 F   0  0  0  0  0  0  0  0  0  0  0  0
    7.5327   -9.2753   -7.0889 F   0  0  0  0  0  0  0  0  0  0  0  0
  1  2  1  0
  2  3  1  0
  3  4  1  0
  4  5  1  0
  5  6  1  0
  5  7  1  0
  5  8  1  0
  8  9  2  0
  8 10  2  0
  8 11  1  0
  4 12  1  0
  4 13  1  0
  3 14  1  0
  3 15  1  0
  2 16  1  0
  2 17  1  0
  1 18  1  0
 18 19  1  0
 19 20  1  0
 20 21  1  0
 20 22  1  0
 20 23  1  0
 19 24  1  0
 19 25  1  0
 18 26  1  0
 18 27  1  0
  1 28  1  0
  1 29  1  0
M  END
$$$$
