
     RDKit          3D

 29 28  0  0  0  0  0  0  0  0999 V2000
   64.8391  -31.3691  -17.0221 C   0  0  0  0  0  0  0  0  0  0  0  0
   63.6355  -31.7447  -17.8037 C   0  0  0  0  0  0  0  0  0  0  0  0
   62.4035  -30.9295  -17.7562 C   0  0  0  0  0  0  0  0  0  0  0  0
   61.3536  -31.1855  -18.7628 C   0  0  0  0  0  0  0  0  0  0  0  0
   60.4182  -32.3148  -18.5803 C   0  0  0  0  0  0  0  0  0  0  0  0
   60.4561  -32.6104  -17.1944 F   0  0  0  0  0  0  0  0  0  0  0  0
   60.9325  -33.4887  -19.1576 F   0  0  0  0  0  0  0  0  0  0  0  0
   58.7455  -32.1093  -18.9827 S   0  0  0  0  0  0  0  0  0  0  0  0
   58.3063  -32.9058  -20.1772 O   0  0  0  0  0  0  0  0  0  0  0  0
   58.4505  -30.6607  -19.3644 O   0  0  0  0  0  0  0  0  0  0  0  0
   57.7148  -32.4509  -17.7164 O   0  0  0  0  0  0  0  0  0  0  0  0
   61.9552  -31.3451  -20.0177 F   0  0  0  0  0  0  0  0  0  0  0  0
   60.5058  -30.0469  -18.8322 F   0  0  0  0  0  0  0  0  0  0  0  0
   62.8401  -29.5989  -18.0347 F   0  0  0  0  0  0  0  0  0  0  0  0
   61.9925  -30.8980  -16.4453 F   0  0  0  0  0  0  0  0  0  0  0  0
   63.3231  -33.0665  -17.4163 F   0  0  0  0  0  0  0  0  0  0  0  0
   64.0369  -31.7929  -19.1471 F   0  0  0  0  0  0  0  0  0  0  0  0
   66.0154  -30.8731  -17.7670 C   0  0  0  0  0  0  0  0  0  0  0  0
   67.0554  -31.8590  -18.2073 C   0  0  0  0  0  0  0  0  0  0  0  0
   68.0639  -32.3265  -17.2432 C   0  0  0  0  0  0  0  0  0  0  0  0
   69.2723  -32.4791  -17.9840 F   0  0  0  0  0  0  0  0  0  0  0  0
   67.7812  -33.6367  -16.8288 F   0  0  0  0  0  0  0  0  0  0  0  0
   68.3470  -31.4893  -16.2032 F   0  0  0  0  0  0  0  0  0  0  0  0
   66.4462  -33.0003  -18.7514 F   0  0  0  0  0  0  0  0  0  0  0  0
   67.7244  -31.2824  -19.3079 F   0  0  0  0  0  0  0  0  0  0  0  0
   66.7152  -29.8502  -17.1238 F   0  0  0  0  0  0  0  0  0  0  0  0
   65.5742  -30.2756  -18.9854 F   0  0  0  0  0  0  0  0  0  0  0  0
   64.5091  -30.5969  -15.9132 F   0  0  0  0  0  0  0  0  0  0  0  0
   65.2636  -32.5817  -16.4178 F   0  0  0  0  0  0  0  0  0  0  0  0
  1  2  1  0
  2  3  1  0
  3  4  1  0
  4  5  1  0
  5  6  1  0
  5  7  1  0
  5  8  1  0
  8  9  2  0
  8 10  2  0
  8 11  1  0
  4 12  1  0
  4 13  1  0
  3 14  1  0
  3 15  1  0
  2 16  1  0
  2 17  1  0
  1 18  1  0
 18 19  1  0
 19 20  1  0
 20 21  1  0
 20 22  1  0
 20 23  1  0
 19 24  1  0
 19 25  1  0
 18 26  1  0
 18 27  1  0
  1 28  1  0
  1 29  1  0
M  END
$$$$
