
     RDKit          3D

 25 24  0  0  0  0  0  0  0  0999 V2000
   14.6925   -1.1729  -10.1259 C   0  0  0  0  0  0  0  0  0  0  0  0
   14.9064   -2.1649   -9.3606 O   0  0  0  0  0  0  0  0  0  0  0  0
   13.4981   -1.1215  -11.0197 C   0  0  0  0  0  0  0  0  0  0  0  0
   12.3167   -0.8436  -10.1469 C   0  0  0  0  0  0  0  0  0  0  0  0
   10.9924   -1.0164  -10.9041 C   0  0  0  0  0  0  0  0  0  0  0  0
    9.9130   -0.7285   -9.9153 C   0  0  0  0  0  0  0  0  0  0  0  0
    8.5298   -0.6919  -10.4132 C   0  0  0  0  0  0  0  0  0  0  0  0
    7.4472   -0.2006   -9.5447 C   0  0  0  0  0  0  0  0  0  0  0  0
    6.0496   -0.3596  -10.0389 C   0  0  0  0  0  0  0  0  0  0  0  0
    5.0680    0.2012   -9.2933 F   0  0  0  0  0  0  0  0  0  0  0  0
    6.0123    0.0088  -11.3683 F   0  0  0  0  0  0  0  0  0  0  0  0
    5.7998   -1.7397  -10.0375 F   0  0  0  0  0  0  0  0  0  0  0  0
    7.6761    1.0780   -9.0398 F   0  0  0  0  0  0  0  0  0  0  0  0
    7.5114   -1.0002   -8.3897 F   0  0  0  0  0  0  0  0  0  0  0  0
    8.1959   -1.9921  -10.7988 F   0  0  0  0  0  0  0  0  0  0  0  0
    8.5036    0.0547  -11.5807 F   0  0  0  0  0  0  0  0  0  0  0  0
   10.1839    0.5732   -9.4578 F   0  0  0  0  0  0  0  0  0  0  0  0
   10.1106   -1.5124   -8.7989 F   0  0  0  0  0  0  0  0  0  0  0  0
   11.0208   -2.2836  -11.4093 F   0  0  0  0  0  0  0  0  0  0  0  0
   10.9737   -0.0884  -11.9311 F   0  0  0  0  0  0  0  0  0  0  0  0
   12.4407    0.4010   -9.6179 F   0  0  0  0  0  0  0  0  0  0  0  0
   12.3449   -1.7530   -9.0975 F   0  0  0  0  0  0  0  0  0  0  0  0
   13.7142   -0.1682  -11.9741 F   0  0  0  0  0  0  0  0  0  0  0  0
   13.4029   -2.3843  -11.6155 F   0  0  0  0  0  0  0  0  0  0  0  0
   15.6349   -0.1554  -10.0722 O   0  0  0  0  0  0  0  0  0  0  0  0
  1  2  2  0
  1  3  1  0
  3  4  1  0
  4  5  1  0
  5  6  1  0
  6  7  1  0
  7  8  1  0
  8  9  1  0
  9 10  1  0
  9 11  1  0
  9 12  1  0
  8 13  1  0
  8 14  1  0
  7 15  1  0
  7 16  1  0
  6 17  1  0
  6 18  1  0
  5 19  1  0
  5 20  1  0
  4 21  1  0
  4 22  1  0
  3 23  1  0
  3 24  1  0
  1 25  1  0
M  END
$$$$
