
     RDKit          3D

 25 24  0  0  0  0  0  0  0  0999 V2000
    7.3080   -7.1403   17.0872 C   0  0  0  0  0  0  0  0  0  0  0  0
    6.8448   -6.9049   18.2472 O   0  0  0  0  0  0  0  0  0  0  0  0
    6.6148   -6.6543   15.8577 C   0  0  0  0  0  0  0  0  0  0  0  0
    5.2010   -6.3618   16.2457 C   0  0  0  0  0  0  0  0  0  0  0  0
    4.3473   -5.9582   15.0353 C   0  0  0  0  0  0  0  0  0  0  0  0
    2.9523   -5.8169   15.5451 C   0  0  0  0  0  0  0  0  0  0  0  0
    2.0014   -5.0602   14.7171 C   0  0  0  0  0  0  0  0  0  0  0  0
    0.8001   -4.4686   15.3293 C   0  0  0  0  0  0  0  0  0  0  0  0
   -0.2749   -3.9994   14.4091 C   0  0  0  0  0  0  0  0  0  0  0  0
   -0.8033   -4.9171   13.5649 F   0  0  0  0  0  0  0  0  0  0  0  0
   -1.2210   -3.3232   15.1523 F   0  0  0  0  0  0  0  0  0  0  0  0
    0.3179   -3.0201   13.5988 F   0  0  0  0  0  0  0  0  0  0  0  0
    1.0852   -3.5270   16.3163 F   0  0  0  0  0  0  0  0  0  0  0  0
    0.2110   -5.5122   16.0651 F   0  0  0  0  0  0  0  0  0  0  0  0
    1.5716   -5.9137   13.6985 F   0  0  0  0  0  0  0  0  0  0  0  0
    2.6909   -4.0429   14.0762 F   0  0  0  0  0  0  0  0  0  0  0  0
    3.0793   -5.0846   16.7387 F   0  0  0  0  0  0  0  0  0  0  0  0
    2.5051   -7.0504   15.9674 F   0  0  0  0  0  0  0  0  0  0  0  0
    4.5491   -6.9329   14.1020 F   0  0  0  0  0  0  0  0  0  0  0  0
    4.8237   -4.7431   14.5740 F   0  0  0  0  0  0  0  0  0  0  0  0
    5.1960   -5.4074   17.2118 F   0  0  0  0  0  0  0  0  0  0  0  0
    4.6663   -7.5204   16.7941 F   0  0  0  0  0  0  0  0  0  0  0  0
    7.2917   -5.5671   15.3822 F   0  0  0  0  0  0  0  0  0  0  0  0
    6.6806   -7.7028   14.9332 F   0  0  0  0  0  0  0  0  0  0  0  0
    8.4872   -7.8711   17.0455 O   0  0  0  0  0  0  0  0  0  0  0  0
  1  2  2  0
  1  3  1  0
  3  4  1  0
  4  5  1  0
  5  6  1  0
  6  7  1  0
  7  8  1  0
  8  9  1  0
  9 10  1  0
  9 11  1  0
  9 12  1  0
  8 13  1  0
  8 14  1  0
  7 15  1  0
  7 16  1  0
  6 17  1  0
  6 18  1  0
  5 19  1  0
  5 20  1  0
  4 21  1  0
  4 22  1  0
  3 23  1  0
  3 24  1  0
  1 25  1  0
M  END
$$$$
