
     RDKit          3D

 25 24  0  0  0  0  0  0  0  0999 V2000
    9.0405   -8.0893   18.4808 C   0  0  0  0  0  0  0  0  0  0  0  0
    8.6625   -9.1759   19.0210 O   0  0  0  0  0  0  0  0  0  0  0  0
    8.1896   -6.8634   18.5176 C   0  0  0  0  0  0  0  0  0  0  0  0
    7.0376   -7.1091   17.5970 C   0  0  0  0  0  0  0  0  0  0  0  0
    6.1377   -5.8725   17.4638 C   0  0  0  0  0  0  0  0  0  0  0  0
    5.0919   -6.2312   16.4621 C   0  0  0  0  0  0  0  0  0  0  0  0
    3.9199   -5.3490   16.3601 C   0  0  0  0  0  0  0  0  0  0  0  0
    2.7831   -5.7303   15.5057 C   0  0  0  0  0  0  0  0  0  0  0  0
    1.5958   -4.8286   15.5060 C   0  0  0  0  0  0  0  0  0  0  0  0
    1.8218   -3.5171   15.2550 F   0  0  0  0  0  0  0  0  0  0  0  0
    0.6244   -5.3859   14.6995 F   0  0  0  0  0  0  0  0  0  0  0  0
    1.0697   -4.8918   16.8045 F   0  0  0  0  0  0  0  0  0  0  0  0
    2.4172   -7.0691   15.6316 F   0  0  0  0  0  0  0  0  0  0  0  0
    3.2765   -5.6718   14.1901 F   0  0  0  0  0  0  0  0  0  0  0  0
    4.3767   -4.1066   15.9144 F   0  0  0  0  0  0  0  0  0  0  0  0
    3.4290   -5.1226   17.6364 F   0  0  0  0  0  0  0  0  0  0  0  0
    4.5930   -7.4729   16.8938 F   0  0  0  0  0  0  0  0  0  0  0  0
    5.7054   -6.5271   15.2637 F   0  0  0  0  0  0  0  0  0  0  0  0
    6.9704   -4.8474   17.1207 F   0  0  0  0  0  0  0  0  0  0  0  0
    5.5664   -5.6355   18.7022 F   0  0  0  0  0  0  0  0  0  0  0  0
    6.3477   -8.1949   18.0321 F   0  0  0  0  0  0  0  0  0  0  0  0
    7.5561   -7.4125   16.3448 F   0  0  0  0  0  0  0  0  0  0  0  0
    7.8205   -6.6331   19.8125 F   0  0  0  0  0  0  0  0  0  0  0  0
    8.9947   -5.8165   18.0545 F   0  0  0  0  0  0  0  0  0  0  0  0
   10.2830   -8.1230   17.8632 O   0  0  0  0  0  0  0  0  0  0  0  0
  1  2  2  0
  1  3  1  0
  3  4  1  0
  4  5  1  0
  5  6  1  0
  6  7  1  0
  7  8  1  0
  8  9  1  0
  9 10  1  0
  9 11  1  0
  9 12  1  0
  8 13  1  0
  8 14  1  0
  7 15  1  0
  7 16  1  0
  6 17  1  0
  6 18  1  0
  5 19  1  0
  5 20  1  0
  4 21  1  0
  4 22  1  0
  3 23  1  0
  3 24  1  0
  1 25  1  0
M  END
$$$$
