
     RDKit          3D

 25 24  0  0  0  0  0  0  0  0999 V2000
    5.7837   -6.4834   17.6667 C   0  0  0  0  0  0  0  0  0  0  0  0
    5.5747   -6.3807   18.9162 O   0  0  0  0  0  0  0  0  0  0  0  0
    5.2887   -5.4534   16.7064 C   0  0  0  0  0  0  0  0  0  0  0  0
    3.8302   -5.7136   16.5072 C   0  0  0  0  0  0  0  0  0  0  0  0
    3.2410   -4.8427   15.3886 C   0  0  0  0  0  0  0  0  0  0  0  0
    1.7932   -5.1948   15.3130 C   0  0  0  0  0  0  0  0  0  0  0  0
    0.9926   -4.5491   14.2620 C   0  0  0  0  0  0  0  0  0  0  0  0
   -0.3551   -5.0526   13.9488 C   0  0  0  0  0  0  0  0  0  0  0  0
   -1.1580   -4.2831   12.9558 C   0  0  0  0  0  0  0  0  0  0  0  0
   -2.2673   -4.8855   12.4654 F   0  0  0  0  0  0  0  0  0  0  0  0
   -1.3939   -3.0234   13.4675 F   0  0  0  0  0  0  0  0  0  0  0  0
   -0.3096   -4.0761   11.8583 F   0  0  0  0  0  0  0  0  0  0  0  0
   -1.1030   -5.3797   15.0783 F   0  0  0  0  0  0  0  0  0  0  0  0
   -0.1480   -6.3065   13.3469 F   0  0  0  0  0  0  0  0  0  0  0  0
    1.7403   -4.6013   13.0835 F   0  0  0  0  0  0  0  0  0  0  0  0
    0.8780   -3.2011   14.5639 F   0  0  0  0  0  0  0  0  0  0  0  0
    1.2510   -4.7455   16.5300 F   0  0  0  0  0  0  0  0  0  0  0  0
    1.6634   -6.5651   15.3862 F   0  0  0  0  0  0  0  0  0  0  0  0
    3.9843   -5.1186   14.2781 F   0  0  0  0  0  0  0  0  0  0  0  0
    3.4026   -3.5190   15.7601 F   0  0  0  0  0  0  0  0  0  0  0  0
    3.1832   -5.5310   17.6872 F   0  0  0  0  0  0  0  0  0  0  0  0
    3.6852   -7.0475   16.1484 F   0  0  0  0  0  0  0  0  0  0  0  0
    5.5627   -4.2176   17.2202 F   0  0  0  0  0  0  0  0  0  0  0  0
    6.0057   -5.6500   15.5206 F   0  0  0  0  0  0  0  0  0  0  0  0
    6.4947   -7.6055   17.2643 O   0  0  0  0  0  0  0  0  0  0  0  0
  1  2  2  0
  1  3  1  0
  3  4  1  0
  4  5  1  0
  5  6  1  0
  6  7  1  0
  7  8  1  0
  8  9  1  0
  9 10  1  0
  9 11  1  0
  9 12  1  0
  8 13  1  0
  8 14  1  0
  7 15  1  0
  7 16  1  0
  6 17  1  0
  6 18  1  0
  5 19  1  0
  5 20  1  0
  4 21  1  0
  4 22  1  0
  3 23  1  0
  3 24  1  0
  1 25  1  0
M  END
$$$$
