
     RDKit          3D

 25 24  0  0  0  0  0  0  0  0999 V2000
   15.0680   -2.0298  -11.3122 C   0  0  0  0  0  0  0  0  0  0  0  0
   15.7273   -2.4968  -10.3310 O   0  0  0  0  0  0  0  0  0  0  0  0
   14.1471   -0.8664  -11.1493 C   0  0  0  0  0  0  0  0  0  0  0  0
   12.8412   -1.4128  -10.6687 C   0  0  0  0  0  0  0  0  0  0  0  0
   11.7849   -0.3107  -10.5061 C   0  0  0  0  0  0  0  0  0  0  0  0
   10.5561   -0.9904  -10.0021 C   0  0  0  0  0  0  0  0  0  0  0  0
    9.3398   -0.1759   -9.8623 C   0  0  0  0  0  0  0  0  0  0  0  0
    8.1073   -0.7783   -9.3277 C   0  0  0  0  0  0  0  0  0  0  0  0
    6.8872    0.0778   -9.2948 C   0  0  0  0  0  0  0  0  0  0  0  0
    6.1557    0.1468  -10.4325 F   0  0  0  0  0  0  0  0  0  0  0  0
    6.1460   -0.2615   -8.1813 F   0  0  0  0  0  0  0  0  0  0  0  0
    7.3425    1.3805   -9.0447 F   0  0  0  0  0  0  0  0  0  0  0  0
    8.2964   -1.4578   -8.1258 F   0  0  0  0  0  0  0  0  0  0  0  0
    7.7905   -1.8187  -10.2192 F   0  0  0  0  0  0  0  0  0  0  0  0
    9.0384    0.3352  -11.1267 F   0  0  0  0  0  0  0  0  0  0  0  0
    9.6398    0.9298   -9.0821 F   0  0  0  0  0  0  0  0  0  0  0  0
   10.8845   -1.4048   -8.6992 F   0  0  0  0  0  0  0  0  0  0  0  0
   10.3893   -2.1750  -10.6868 F   0  0  0  0  0  0  0  0  0  0  0  0
   11.6824    0.2835  -11.7301 F   0  0  0  0  0  0  0  0  0  0  0  0
   12.2621    0.5913   -9.5708 F   0  0  0  0  0  0  0  0  0  0  0  0
   13.0460   -2.0948   -9.5123 F   0  0  0  0  0  0  0  0  0  0  0  0
   12.3884   -2.3191  -11.6187 F   0  0  0  0  0  0  0  0  0  0  0  0
   14.7233    0.0224  -10.2867 F   0  0  0  0  0  0  0  0  0  0  0  0
   14.0196   -0.2900  -12.4182 F   0  0  0  0  0  0  0  0  0  0  0  0
   15.2624   -2.6695  -12.5286 O   0  0  0  0  0  0  0  0  0  0  0  0
  1  2  2  0
  1  3  1  0
  3  4  1  0
  4  5  1  0
  5  6  1  0
  6  7  1  0
  7  8  1  0
  8  9  1  0
  9 10  1  0
  9 11  1  0
  9 12  1  0
  8 13  1  0
  8 14  1  0
  7 15  1  0
  7 16  1  0
  6 17  1  0
  6 18  1  0
  5 19  1  0
  5 20  1  0
  4 21  1  0
  4 22  1  0
  3 23  1  0
  3 24  1  0
  1 25  1  0
M  END
$$$$
