
     RDKit          3D

 29 28  0  0  0  0  0  0  0  0999 V2000
   12.0959   -7.9390    7.2676 C   0  0  0  0  0  0  0  0  0  0  0  0
   12.0612   -6.4489    7.5824 C   0  0  0  0  0  0  0  0  0  0  0  0
   12.6161   -6.3187    8.9720 C   0  0  0  0  0  0  0  0  0  0  0  0
   12.7610   -4.9501    9.5148 C   0  0  0  0  0  0  0  0  0  0  0  0
   12.9112   -4.8229   11.0052 C   0  0  0  0  0  0  0  0  0  0  0  0
   11.7363   -5.1416   11.6479 F   0  0  0  0  0  0  0  0  0  0  0  0
   13.9992   -5.5051   11.4903 F   0  0  0  0  0  0  0  0  0  0  0  0
   13.2592   -3.0821   11.3793 S   0  0  0  0  0  0  0  0  0  0  0  0
   14.4992   -2.7328   10.6197 O   0  0  0  0  0  0  0  0  0  0  0  0
   13.4951   -2.9600   12.8457 O   0  0  0  0  0  0  0  0  0  0  0  0
   11.9446   -2.1782   10.8816 O   0  0  0  0  0  0  0  0  0  0  0  0
   11.5908   -4.2379    9.1913 F   0  0  0  0  0  0  0  0  0  0  0  0
   13.8496   -4.2971    8.9192 F   0  0  0  0  0  0  0  0  0  0  0  0
   13.7759   -7.0740    9.0934 F   0  0  0  0  0  0  0  0  0  0  0  0
   11.6932   -6.9778    9.8065 F   0  0  0  0  0  0  0  0  0  0  0  0
   10.7779   -5.9933    7.4603 F   0  0  0  0  0  0  0  0  0  0  0  0
   12.8294   -5.8236    6.6130 F   0  0  0  0  0  0  0  0  0  0  0  0
   11.5713   -8.2328    5.8932 C   0  0  0  0  0  0  0  0  0  0  0  0
   11.4953   -9.7582    5.8012 C   0  0  0  0  0  0  0  0  0  0  0  0
   11.0926  -10.0939    4.3912 C   0  0  0  0  0  0  0  0  0  0  0  0
   12.0526   -9.5587    3.5497 F   0  0  0  0  0  0  0  0  0  0  0  0
    9.8672   -9.5754    4.0537 F   0  0  0  0  0  0  0  0  0  0  0  0
   11.0876  -11.4712    4.2832 F   0  0  0  0  0  0  0  0  0  0  0  0
   10.5420  -10.1270    6.7309 F   0  0  0  0  0  0  0  0  0  0  0  0
   12.7225  -10.2298    6.1484 F   0  0  0  0  0  0  0  0  0  0  0  0
   10.2576   -7.7596    5.7867 F   0  0  0  0  0  0  0  0  0  0  0  0
   12.3665   -7.7296    4.8857 F   0  0  0  0  0  0  0  0  0  0  0  0
   11.3273   -8.5782    8.1872 F   0  0  0  0  0  0  0  0  0  0  0  0
   13.3978   -8.3868    7.3331 F   0  0  0  0  0  0  0  0  0  0  0  0
  1  2  1  0
  2  3  1  0
  3  4  1  0
  4  5  1  0
  5  6  1  0
  5  7  1  0
  5  8  1  0
  8  9  2  0
  8 10  2  0
  8 11  1  0
  4 12  1  0
  4 13  1  0
  3 14  1  0
  3 15  1  0
  2 16  1  0
  2 17  1  0
  1 18  1  0
 18 19  1  0
 19 20  1  0
 20 21  1  0
 20 22  1  0
 20 23  1  0
 19 24  1  0
 19 25  1  0
 18 26  1  0
 18 27  1  0
  1 28  1  0
  1 29  1  0
M  END
$$$$
