
     RDKit          3D

 29 28  0  0  0  0  0  0  0  0999 V2000
   12.6220   -8.9805   -4.2558 C   0  0  0  0  0  0  0  0  0  0  0  0
   11.7202   -8.3436   -5.3055 C   0  0  0  0  0  0  0  0  0  0  0  0
   11.9753   -9.1090   -6.5723 C   0  0  0  0  0  0  0  0  0  0  0  0
   11.1310   -8.7789   -7.7414 C   0  0  0  0  0  0  0  0  0  0  0  0
   11.5255   -9.3883   -9.0579 C   0  0  0  0  0  0  0  0  0  0  0  0
   12.7420   -8.9026   -9.4810 F   0  0  0  0  0  0  0  0  0  0  0  0
   11.4598  -10.7595   -9.0502 F   0  0  0  0  0  0  0  0  0  0  0  0
   10.2980   -8.8788  -10.2929 S   0  0  0  0  0  0  0  0  0  0  0  0
   10.7167   -9.5114  -11.5817 O   0  0  0  0  0  0  0  0  0  0  0  0
   10.3398   -7.3932  -10.4042 O   0  0  0  0  0  0  0  0  0  0  0  0
    8.8024   -9.4243   -9.7844 O   0  0  0  0  0  0  0  0  0  0  0  0
   11.1980   -7.3864   -7.9351 F   0  0  0  0  0  0  0  0  0  0  0  0
    9.7940   -9.1228   -7.4957 F   0  0  0  0  0  0  0  0  0  0  0  0
   12.0183  -10.4716   -6.3040 F   0  0  0  0  0  0  0  0  0  0  0  0
   13.2976   -8.7939   -6.9398 F   0  0  0  0  0  0  0  0  0  0  0  0
   12.0134   -7.0117   -5.4020 F   0  0  0  0  0  0  0  0  0  0  0  0
   10.4224   -8.4612   -4.8333 F   0  0  0  0  0  0  0  0  0  0  0  0
   12.5772   -8.2364   -2.9539 C   0  0  0  0  0  0  0  0  0  0  0  0
   13.4600   -9.0367   -1.9942 C   0  0  0  0  0  0  0  0  0  0  0  0
   13.2880   -8.4290   -0.6288 C   0  0  0  0  0  0  0  0  0  0  0  0
   13.6670   -7.1007   -0.7179 F   0  0  0  0  0  0  0  0  0  0  0  0
   14.0567   -9.0473    0.3258 F   0  0  0  0  0  0  0  0  0  0  0  0
   11.9470   -8.5149   -0.3079 F   0  0  0  0  0  0  0  0  0  0  0  0
   14.7441   -8.8941   -2.4841 F   0  0  0  0  0  0  0  0  0  0  0  0
   13.0485  -10.3301   -2.0749 F   0  0  0  0  0  0  0  0  0  0  0  0
   13.1886   -6.9865   -3.1122 F   0  0  0  0  0  0  0  0  0  0  0  0
   11.3037   -8.1081   -2.4416 F   0  0  0  0  0  0  0  0  0  0  0  0
   13.8930   -8.9695   -4.7350 F   0  0  0  0  0  0  0  0  0  0  0  0
   12.2059  -10.2738   -4.0237 F   0  0  0  0  0  0  0  0  0  0  0  0
  1  2  1  0
  2  3  1  0
  3  4  1  0
  4  5  1  0
  5  6  1  0
  5  7  1  0
  5  8  1  0
  8  9  2  0
  8 10  2  0
  8 11  1  0
  4 12  1  0
  4 13  1  0
  3 14  1  0
  3 15  1  0
  2 16  1  0
  2 17  1  0
  1 18  1  0
 18 19  1  0
 19 20  1  0
 20 21  1  0
 20 22  1  0
 20 23  1  0
 19 24  1  0
 19 25  1  0
 18 26  1  0
 18 27  1  0
  1 28  1  0
  1 29  1  0
M  END
$$$$
