
     RDKit          3D

 29 28  0  0  0  0  0  0  0  0999 V2000
   -2.6203  -16.0806   -9.6666 C   0  0  0  0  0  0  0  0  0  0  0  0
   -3.8148  -16.0445  -10.6114 C   0  0  0  0  0  0  0  0  0  0  0  0
   -3.5215  -17.0695  -11.6693 C   0  0  0  0  0  0  0  0  0  0  0  0
   -4.4505  -17.1373  -12.8186 C   0  0  0  0  0  0  0  0  0  0  0  0
   -4.0915  -18.0876  -13.9270 C   0  0  0  0  0  0  0  0  0  0  0  0
   -2.7556  -17.9919  -14.2448 F   0  0  0  0  0  0  0  0  0  0  0  0
   -4.5009  -19.3740  -13.6781 F   0  0  0  0  0  0  0  0  0  0  0  0
   -5.0201  -17.5901  -15.4041 S   0  0  0  0  0  0  0  0  0  0  0  0
   -4.4360  -16.2853  -15.8432 O   0  0  0  0  0  0  0  0  0  0  0  0
   -6.4492  -17.4174  -15.0183 O   0  0  0  0  0  0  0  0  0  0  0  0
   -4.8253  -18.7832  -16.5579 O   0  0  0  0  0  0  0  0  0  0  0  0
   -4.4867  -15.8617  -13.4123 F   0  0  0  0  0  0  0  0  0  0  0  0
   -5.7458  -17.4560  -12.3864 F   0  0  0  0  0  0  0  0  0  0  0  0
   -3.2973  -18.3084  -11.0816 F   0  0  0  0  0  0  0  0  0  0  0  0
   -2.2661  -16.7128  -12.1979 F   0  0  0  0  0  0  0  0  0  0  0  0
   -3.9613  -14.7771  -11.1027 F   0  0  0  0  0  0  0  0  0  0  0  0
   -4.9320  -16.3364   -9.8450 F   0  0  0  0  0  0  0  0  0  0  0  0
   -2.7741  -15.1100   -8.5331 C   0  0  0  0  0  0  0  0  0  0  0  0
   -1.3904  -15.0114   -7.8877 C   0  0  0  0  0  0  0  0  0  0  0  0
   -1.4198  -13.8242   -6.9643 C   0  0  0  0  0  0  0  0  0  0  0  0
   -2.2742  -14.1348   -5.9204 F   0  0  0  0  0  0  0  0  0  0  0  0
   -1.8700  -12.6843   -7.5828 F   0  0  0  0  0  0  0  0  0  0  0  0
   -0.1365  -13.6461   -6.4846 F   0  0  0  0  0  0  0  0  0  0  0  0
   -0.5132  -14.8460   -8.9424 F   0  0  0  0  0  0  0  0  0  0  0  0
   -1.1723  -16.1944   -7.2536 F   0  0  0  0  0  0  0  0  0  0  0  0
   -3.0680  -13.8403   -9.0457 F   0  0  0  0  0  0  0  0  0  0  0  0
   -3.7120  -15.5019   -7.6017 F   0  0  0  0  0  0  0  0  0  0  0  0
   -1.5113  -15.7614  -10.3830 F   0  0  0  0  0  0  0  0  0  0  0  0
   -2.5013  -17.3459   -9.1330 F   0  0  0  0  0  0  0  0  0  0  0  0
  1  2  1  0
  2  3  1  0
  3  4  1  0
  4  5  1  0
  5  6  1  0
  5  7  1  0
  5  8  1  0
  8  9  2  0
  8 10  2  0
  8 11  1  0
  4 12  1  0
  4 13  1  0
  3 14  1  0
  3 15  1  0
  2 16  1  0
  2 17  1  0
  1 18  1  0
 18 19  1  0
 19 20  1  0
 20 21  1  0
 20 22  1  0
 20 23  1  0
 19 24  1  0
 19 25  1  0
 18 26  1  0
 18 27  1  0
  1 28  1  0
  1 29  1  0
M  END
$$$$
