
     RDKit          3D

 29 28  0  0  0  0  0  0  0  0999 V2000
   12.8967   -4.7859    7.1208 C   0  0  0  0  0  0  0  0  0  0  0  0
   12.3519   -5.6510    5.9914 C   0  0  0  0  0  0  0  0  0  0  0  0
   11.9561   -6.9492    6.6347 C   0  0  0  0  0  0  0  0  0  0  0  0
   11.4134   -8.0028    5.7492 C   0  0  0  0  0  0  0  0  0  0  0  0
   11.0740   -9.3200    6.3896 C   0  0  0  0  0  0  0  0  0  0  0  0
   12.1640   -9.8435    7.0473 F   0  0  0  0  0  0  0  0  0  0  0  0
    9.9462   -9.2571    7.1697 F   0  0  0  0  0  0  0  0  0  0  0  0
   10.6495  -10.4854    5.0655 S   0  0  0  0  0  0  0  0  0  0  0  0
   11.9129  -10.7269    4.3026 O   0  0  0  0  0  0  0  0  0  0  0  0
    9.6278   -9.8431    4.1910 O   0  0  0  0  0  0  0  0  0  0  0  0
   10.0715  -11.8822    5.7779 O   0  0  0  0  0  0  0  0  0  0  0  0
   12.3952   -8.2946    4.7837 F   0  0  0  0  0  0  0  0  0  0  0  0
   10.2676   -7.5443    5.0836 F   0  0  0  0  0  0  0  0  0  0  0  0
   11.1517   -6.7058    7.7411 F   0  0  0  0  0  0  0  0  0  0  0  0
   13.1424   -7.4704    7.1860 F   0  0  0  0  0  0  0  0  0  0  0  0
   13.3112   -5.7879    5.0269 F   0  0  0  0  0  0  0  0  0  0  0  0
   11.2888   -4.9540    5.4393 F   0  0  0  0  0  0  0  0  0  0  0  0
   13.8908   -3.7782    6.6240 C   0  0  0  0  0  0  0  0  0  0  0  0
   14.5031   -3.1536    7.8793 C   0  0  0  0  0  0  0  0  0  0  0  0
   15.4586   -2.0871    7.4181 C   0  0  0  0  0  0  0  0  0  0  0  0
   16.3593   -2.6860    6.5543 F   0  0  0  0  0  0  0  0  0  0  0  0
   16.1516   -1.5136    8.4551 F   0  0  0  0  0  0  0  0  0  0  0  0
   14.7176   -1.1379    6.7408 F   0  0  0  0  0  0  0  0  0  0  0  0
   15.1385   -4.1963    8.5259 F   0  0  0  0  0  0  0  0  0  0  0  0
   13.4675   -2.6787    8.6216 F   0  0  0  0  0  0  0  0  0  0  0  0
   14.9301   -4.4403    5.9587 F   0  0  0  0  0  0  0  0  0  0  0  0
   13.3289   -2.8035    5.8272 F   0  0  0  0  0  0  0  0  0  0  0  0
   13.5003   -5.6053    8.0205 F   0  0  0  0  0  0  0  0  0  0  0  0
   11.8559   -4.1037    7.7131 F   0  0  0  0  0  0  0  0  0  0  0  0
  1  2  1  0
  2  3  1  0
  3  4  1  0
  4  5  1  0
  5  6  1  0
  5  7  1  0
  5  8  1  0
  8  9  2  0
  8 10  2  0
  8 11  1  0
  4 12  1  0
  4 13  1  0
  3 14  1  0
  3 15  1  0
  2 16  1  0
  2 17  1  0
  1 18  1  0
 18 19  1  0
 19 20  1  0
 20 21  1  0
 20 22  1  0
 20 23  1  0
 19 24  1  0
 19 25  1  0
 18 26  1  0
 18 27  1  0
  1 28  1  0
  1 29  1  0
M  END
$$$$
