
     RDKit          3D

 28 31  0  0  0  0  0  0  0  0999 V2000
   -3.0196  -22.3141   25.9588 C   0  0  0  0  0  0  0  0  0  0  0  0
   -2.2322  -22.1200   27.0746 C   0  0  0  0  0  0  0  0  0  0  0  0
   -0.8773  -22.3265   27.0029 C   0  0  0  0  0  0  0  0  0  0  0  0
   -0.2565  -22.7311   25.8279 C   0  0  0  0  0  0  0  0  0  0  0  0
   -1.0426  -22.9300   24.6952 C   0  0  0  0  0  0  0  0  0  0  0  0
   -2.4118  -22.7194   24.7744 C   0  0  0  0  0  0  0  0  0  0  0  0
   -0.4304  -23.3521   23.4513 C   0  0  0  0  0  0  0  0  0  0  0  0
    0.8126  -23.8560   23.3435 N   0  0  0  0  0  0  0  0  0  0  0  0
    1.0482  -24.1377   22.0486 N   0  0  0  0  0  0  0  0  0  0  0  0
   -0.0361  -23.8157   21.3377 C   0  0  0  0  0  0  0  0  0  0  0  0
   -0.9328  -23.3330   22.2315 N   0  0  0  0  0  0  0  0  0  0  0  0
   -0.2872  -23.9249   19.9155 C   0  0  0  0  0  0  0  0  0  0  0  0
   -1.3912  -24.5001   19.3399 C   0  0  0  0  0  0  0  0  0  0  0  0
   -1.5779  -24.5758   17.9625 C   0  0  0  0  0  0  0  0  0  0  0  0
   -0.6450  -24.0672   17.1122 C   0  0  0  0  0  0  0  0  0  0  0  0
    0.4776  -23.4819   17.6725 C   0  0  0  0  0  0  0  0  0  0  0  0
    0.6601  -23.4082   19.0363 C   0  0  0  0  0  0  0  0  0  0  0  0
    1.8149  -22.8044   19.5136 O   0  0  0  0  0  0  0  0  0  0  0  0
    2.2878  -24.6846   21.6377 C   0  0  0  0  0  0  0  0  0  0  0  0
    2.3113  -25.6478   20.6172 C   0  0  0  0  0  0  0  0  0  0  0  0
    3.4889  -26.2219   20.1948 C   0  0  0  0  0  0  0  0  0  0  0  0
    4.6570  -25.8181   20.8108 C   0  0  0  0  0  0  0  0  0  0  0  0
    4.6504  -24.8757   21.8119 C   0  0  0  0  0  0  0  0  0  0  0  0
    3.4844  -24.2868   22.2519 C   0  0  0  0  0  0  0  0  0  0  0  0
    5.9223  -26.4024   20.3916 C   0  0  0  0  0  0  0  0  0  0  0  0
    6.9704  -25.9896   20.9711 O   0  0  0  0  0  0  0  0  0  0  0  0
    6.0007  -27.3614   19.4119 O   0  0  0  0  0  0  0  0  0  0  0  0
    1.1018  -22.9336   25.7728 O   0  0  0  0  0  0  0  0  0  0  0  0
  1  2  2  0
  2  3  1  0
  3  4  2  0
  4  5  1  0
  5  6  2  0
  5  7  1  0
  7  8  2  0
  8  9  1  0
  9 10  1  0
 10 11  2  0
 10 12  1  0
 12 13  2  0
 13 14  1  0
 14 15  2  0
 15 16  1  0
 16 17  2  0
 17 18  1  0
  9 19  1  0
 19 20  1  0
 20 21  2  0
 21 22  1  0
 22 23  2  0
 23 24  1  0
 22 25  1  0
 25 26  2  0
 25 27  1  0
  4 28  1  0
  6  1  1  0
 11  7  1  0
 17 12  1  0
 24 19  2  0
M  END
$$$$
