
     RDKit          3D

 28 31  0  0  0  0  0  0  0  0999 V2000
   39.8267  -31.8693   16.7653 C   0  0  0  0  0  0  0  0  0  0  0  0
   40.0045  -30.7700   17.5794 C   0  0  0  0  0  0  0  0  0  0  0  0
   39.0000  -30.3734   18.4263 C   0  0  0  0  0  0  0  0  0  0  0  0
   37.7883  -31.0489   18.4966 C   0  0  0  0  0  0  0  0  0  0  0  0
   37.5983  -32.1604   17.6787 C   0  0  0  0  0  0  0  0  0  0  0  0
   38.6180  -32.5561   16.8248 C   0  0  0  0  0  0  0  0  0  0  0  0
   36.3473  -32.8905   17.7243 C   0  0  0  0  0  0  0  0  0  0  0  0
   35.2692  -32.5159   18.4372 N   0  0  0  0  0  0  0  0  0  0  0  0
   34.2942  -33.4238   18.2454 N   0  0  0  0  0  0  0  0  0  0  0  0
   34.7478  -34.3687   17.4172 C   0  0  0  0  0  0  0  0  0  0  0  0
   36.0191  -34.0122   17.1122 N   0  0  0  0  0  0  0  0  0  0  0  0
   34.0924  -35.5534   16.9028 C   0  0  0  0  0  0  0  0  0  0  0  0
   34.1800  -36.0214   15.6166 C   0  0  0  0  0  0  0  0  0  0  0  0
   33.5253  -37.1694   15.1793 C   0  0  0  0  0  0  0  0  0  0  0  0
   32.7523  -37.8901   16.0366 C   0  0  0  0  0  0  0  0  0  0  0  0
   32.6502  -37.4352   17.3402 C   0  0  0  0  0  0  0  0  0  0  0  0
   33.2992  -36.2984   17.7706 C   0  0  0  0  0  0  0  0  0  0  0  0
   33.1424  -35.9131   19.0946 O   0  0  0  0  0  0  0  0  0  0  0  0
   33.0356  -33.2832   18.8785 C   0  0  0  0  0  0  0  0  0  0  0  0
   32.9751  -32.7758   20.1856 C   0  0  0  0  0  0  0  0  0  0  0  0
   31.7775  -32.6368   20.8501 C   0  0  0  0  0  0  0  0  0  0  0  0
   30.6273  -33.0150   20.1860 C   0  0  0  0  0  0  0  0  0  0  0  0
   30.6704  -33.5138   18.9056 C   0  0  0  0  0  0  0  0  0  0  0  0
   31.8567  -33.6623   18.2198 C   0  0  0  0  0  0  0  0  0  0  0  0
   29.3420  -32.8829   20.8557 C   0  0  0  0  0  0  0  0  0  0  0  0
   28.3125  -33.2345   20.2065 O   0  0  0  0  0  0  0  0  0  0  0  0
   29.2259  -32.4004   22.1362 O   0  0  0  0  0  0  0  0  0  0  0  0
   36.7922  -30.6387   19.3503 O   0  0  0  0  0  0  0  0  0  0  0  0
  1  2  2  0
  2  3  1  0
  3  4  2  0
  4  5  1  0
  5  6  2  0
  5  7  1  0
  7  8  2  0
  8  9  1  0
  9 10  1  0
 10 11  2  0
 10 12  1  0
 12 13  2  0
 13 14  1  0
 14 15  2  0
 15 16  1  0
 16 17  2  0
 17 18  1  0
  9 19  1  0
 19 20  1  0
 20 21  2  0
 21 22  1  0
 22 23  2  0
 23 24  1  0
 22 25  1  0
 25 26  2  0
 25 27  1  0
  4 28  1  0
  6  1  1  0
 11  7  1  0
 17 12  1  0
 24 19  2  0
M  END
$$$$
