
     RDKit          3D

 28 31  0  0  0  0  0  0  0  0999 V2000
    6.5356  -40.1861    2.8915 C   0  0  0  0  0  0  0  0  0  0  0  0
    5.3054  -39.7640    3.3510 C   0  0  0  0  0  0  0  0  0  0  0  0
    4.2557  -40.6460    3.4113 C   0  0  0  0  0  0  0  0  0  0  0  0
    4.3867  -41.9725    3.0202 C   0  0  0  0  0  0  0  0  0  0  0  0
    5.6249  -42.4091    2.5546 C   0  0  0  0  0  0  0  0  0  0  0  0
    6.6820  -41.5122    2.4961 C   0  0  0  0  0  0  0  0  0  0  0  0
    5.7997  -43.7860    2.1376 C   0  0  0  0  0  0  0  0  0  0  0  0
    6.9912  -44.3874    1.9665 N   0  0  0  0  0  0  0  0  0  0  0  0
    6.7762  -45.6580    1.5780 N   0  0  0  0  0  0  0  0  0  0  0  0
    5.4584  -45.8639    1.5024 C   0  0  0  0  0  0  0  0  0  0  0  0
    4.8811  -44.6894    1.8538 N   0  0  0  0  0  0  0  0  0  0  0  0
    4.7182  -47.0529    1.1335 C   0  0  0  0  0  0  0  0  0  0  0  0
    4.9158  -47.7985   -0.0004 C   0  0  0  0  0  0  0  0  0  0  0  0
    4.1708  -48.9351   -0.3021 C   0  0  0  0  0  0  0  0  0  0  0  0
    3.1910  -49.3602    0.5414 C   0  0  0  0  0  0  0  0  0  0  0  0
    2.9749  -48.6217    1.6923 C   0  0  0  0  0  0  0  0  0  0  0  0
    3.7137  -47.4969    1.9886 C   0  0  0  0  0  0  0  0  0  0  0  0
    3.4312  -46.8154    3.1641 O   0  0  0  0  0  0  0  0  0  0  0  0
    7.8595  -46.5331    1.3226 C   0  0  0  0  0  0  0  0  0  0  0  0
    7.8200  -47.8429    1.8251 C   0  0  0  0  0  0  0  0  0  0  0  0
    8.8560  -48.7256    1.6188 C   0  0  0  0  0  0  0  0  0  0  0  0
    9.9450  -48.2796    0.8962 C   0  0  0  0  0  0  0  0  0  0  0  0
    9.9985  -46.9995    0.3976 C   0  0  0  0  0  0  0  0  0  0  0  0
    8.9741  -46.0978    0.5909 C   0  0  0  0  0  0  0  0  0  0  0  0
   11.0601  -49.1838    0.6573 C   0  0  0  0  0  0  0  0  0  0  0  0
   11.9335  -48.8159   -0.1833 O   0  0  0  0  0  0  0  0  0  0  0  0
   11.1810  -50.3894    1.3038 O   0  0  0  0  0  0  0  0  0  0  0  0
    3.3253  -42.8433    3.0869 O   0  0  0  0  0  0  0  0  0  0  0  0
  1  2  2  0
  2  3  1  0
  3  4  2  0
  4  5  1  0
  5  6  2  0
  5  7  1  0
  7  8  2  0
  8  9  1  0
  9 10  1  0
 10 11  2  0
 10 12  1  0
 12 13  2  0
 13 14  1  0
 14 15  2  0
 15 16  1  0
 16 17  2  0
 17 18  1  0
  9 19  1  0
 19 20  1  0
 20 21  2  0
 21 22  1  0
 22 23  2  0
 23 24  1  0
 22 25  1  0
 25 26  2  0
 25 27  1  0
  4 28  1  0
  6  1  1  0
 11  7  1  0
 17 12  1  0
 24 19  2  0
M  END
$$$$
