
     RDKit          3D

 28 31  0  0  0  0  0  0  0  0999 V2000
   39.1911  -33.4728    7.4416 C   0  0  0  0  0  0  0  0  0  0  0  0
   39.6648  -32.4017    8.1703 C   0  0  0  0  0  0  0  0  0  0  0  0
   38.9961  -31.9870    9.2947 C   0  0  0  0  0  0  0  0  0  0  0  0
   37.8387  -32.6161    9.7357 C   0  0  0  0  0  0  0  0  0  0  0  0
   37.3518  -33.6990    9.0070 C   0  0  0  0  0  0  0  0  0  0  0  0
   38.0327  -34.1131    7.8712 C   0  0  0  0  0  0  0  0  0  0  0  0
   36.1470  -34.3805    9.4363 C   0  0  0  0  0  0  0  0  0  0  0  0
   35.6375  -35.4771    8.8459 N   0  0  0  0  0  0  0  0  0  0  0  0
   34.5201  -35.8363    9.5046 N   0  0  0  0  0  0  0  0  0  0  0  0
   34.3198  -34.9754   10.5063 C   0  0  0  0  0  0  0  0  0  0  0  0
   35.3410  -34.0874   10.4388 N   0  0  0  0  0  0  0  0  0  0  0  0
   33.2661  -34.9255   11.4987 C   0  0  0  0  0  0  0  0  0  0  0  0
   32.1385  -35.7061   11.5082 C   0  0  0  0  0  0  0  0  0  0  0  0
   31.1576  -35.6125   12.4915 C   0  0  0  0  0  0  0  0  0  0  0  0
   31.2852  -34.7173   13.5084 C   0  0  0  0  0  0  0  0  0  0  0  0
   32.4163  -33.9191   13.5179 C   0  0  0  0  0  0  0  0  0  0  0  0
   33.3859  -34.0136   12.5434 C   0  0  0  0  0  0  0  0  0  0  0  0
   34.4884  -33.1751   12.6291 O   0  0  0  0  0  0  0  0  0  0  0  0
   33.7690  -36.9660    9.0992 C   0  0  0  0  0  0  0  0  0  0  0  0
   32.5317  -36.7785    8.4640 C   0  0  0  0  0  0  0  0  0  0  0  0
   31.7563  -37.8445    8.0671 C   0  0  0  0  0  0  0  0  0  0  0  0
   32.2369  -39.1151    8.3150 C   0  0  0  0  0  0  0  0  0  0  0  0
   33.4469  -39.3150    8.9362 C   0  0  0  0  0  0  0  0  0  0  0  0
   34.2409  -38.2642    9.3427 C   0  0  0  0  0  0  0  0  0  0  0  0
   31.4456  -40.2675    7.9100 C   0  0  0  0  0  0  0  0  0  0  0  0
   31.8130  -41.4014    8.3392 O   0  0  0  0  0  0  0  0  0  0  0  0
   30.3440  -40.1546    7.0979 O   0  0  0  0  0  0  0  0  0  0  0  0
   37.1807  -32.1884   10.8641 O   0  0  0  0  0  0  0  0  0  0  0  0
  1  2  2  0
  2  3  1  0
  3  4  2  0
  4  5  1  0
  5  6  2  0
  5  7  1  0
  7  8  2  0
  8  9  1  0
  9 10  1  0
 10 11  2  0
 10 12  1  0
 12 13  2  0
 13 14  1  0
 14 15  2  0
 15 16  1  0
 16 17  2  0
 17 18  1  0
  9 19  1  0
 19 20  1  0
 20 21  2  0
 21 22  1  0
 22 23  2  0
 23 24  1  0
 22 25  1  0
 25 26  2  0
 25 27  1  0
  4 28  1  0
  6  1  1  0
 11  7  1  0
 17 12  1  0
 24 19  2  0
M  END
$$$$
