
     RDKit          3D

 28 31  0  0  0  0  0  0  0  0999 V2000
   34.0428  -58.2838   13.4397 C   0  0  0  0  0  0  0  0  0  0  0  0
   35.0159  -58.1658   14.4103 C   0  0  0  0  0  0  0  0  0  0  0  0
   35.7627  -57.0177   14.4975 C   0  0  0  0  0  0  0  0  0  0  0  0
   35.5730  -55.9497   13.6297 C   0  0  0  0  0  0  0  0  0  0  0  0
   34.5928  -56.0585   12.6458 C   0  0  0  0  0  0  0  0  0  0  0  0
   33.8413  -57.2220   12.5631 C   0  0  0  0  0  0  0  0  0  0  0  0
   34.3661  -54.9649   11.7224 C   0  0  0  0  0  0  0  0  0  0  0  0
   34.8949  -53.7341   11.8505 N   0  0  0  0  0  0  0  0  0  0  0  0
   34.4737  -52.9791   10.8190 N   0  0  0  0  0  0  0  0  0  0  0  0
   33.6831  -53.7231   10.0404 C   0  0  0  0  0  0  0  0  0  0  0  0
   33.6355  -54.9450   10.6240 N   0  0  0  0  0  0  0  0  0  0  0  0
   32.9854  -53.3805    8.8182 C   0  0  0  0  0  0  0  0  0  0  0  0
   31.6309  -53.4633    8.6202 C   0  0  0  0  0  0  0  0  0  0  0  0
   31.0158  -53.1190    7.4199 C   0  0  0  0  0  0  0  0  0  0  0  0
   31.7573  -52.6749    6.3687 C   0  0  0  0  0  0  0  0  0  0  0  0
   33.1271  -52.5836    6.5473 C   0  0  0  0  0  0  0  0  0  0  0  0
   33.7336  -52.9251    7.7365 C   0  0  0  0  0  0  0  0  0  0  0  0
   35.1129  -52.8035    7.8299 O   0  0  0  0  0  0  0  0  0  0  0  0
   34.8769  -51.6275   10.6954 C   0  0  0  0  0  0  0  0  0  0  0  0
   33.9818  -50.6879   10.1610 C   0  0  0  0  0  0  0  0  0  0  0  0
   34.3328  -49.3661   10.0042 C   0  0  0  0  0  0  0  0  0  0  0  0
   35.6034  -48.9890   10.3920 C   0  0  0  0  0  0  0  0  0  0  0  0
   36.4915  -49.8977   10.9171 C   0  0  0  0  0  0  0  0  0  0  0  0
   36.1635  -51.2260   11.0838 C   0  0  0  0  0  0  0  0  0  0  0  0
   36.0113  -47.6001   10.2418 C   0  0  0  0  0  0  0  0  0  0  0  0
   35.1587  -46.7953    9.7620 O   0  0  0  0  0  0  0  0  0  0  0  0
   37.2617  -47.1582   10.5982 O   0  0  0  0  0  0  0  0  0  0  0  0
   36.3295  -54.8065   13.7304 O   0  0  0  0  0  0  0  0  0  0  0  0
  1  2  2  0
  2  3  1  0
  3  4  2  0
  4  5  1  0
  5  6  2  0
  5  7  1  0
  7  8  2  0
  8  9  1  0
  9 10  1  0
 10 11  2  0
 10 12  1  0
 12 13  2  0
 13 14  1  0
 14 15  2  0
 15 16  1  0
 16 17  2  0
 17 18  1  0
  9 19  1  0
 19 20  1  0
 20 21  2  0
 21 22  1  0
 22 23  2  0
 23 24  1  0
 22 25  1  0
 25 26  2  0
 25 27  1  0
  4 28  1  0
  6  1  1  0
 11  7  1  0
 17 12  1  0
 24 19  2  0
M  END
$$$$
