
     RDKit          3D

 28 31  0  0  0  0  0  0  0  0999 V2000
   -2.6402  -23.8885   -6.1778 C   0  0  0  0  0  0  0  0  0  0  0  0
   -3.4994  -22.8931   -6.5944 C   0  0  0  0  0  0  0  0  0  0  0  0
   -3.2763  -21.5921   -6.2186 C   0  0  0  0  0  0  0  0  0  0  0  0
   -2.1984  -21.2323   -5.4197 C   0  0  0  0  0  0  0  0  0  0  0  0
   -1.3245  -22.2299   -4.9935 C   0  0  0  0  0  0  0  0  0  0  0  0
   -1.5558  -23.5432   -5.3771 C   0  0  0  0  0  0  0  0  0  0  0  0
   -0.1887  -21.8927   -4.1590 C   0  0  0  0  0  0  0  0  0  0  0  0
    0.2703  -20.6434   -3.9611 N   0  0  0  0  0  0  0  0  0  0  0  0
    1.3309  -20.7041   -3.1348 N   0  0  0  0  0  0  0  0  0  0  0  0
    1.5455  -21.9819   -2.8091 C   0  0  0  0  0  0  0  0  0  0  0  0
    0.5909  -22.6926   -3.4570 N   0  0  0  0  0  0  0  0  0  0  0  0
    2.5560  -22.5714   -1.9553 C   0  0  0  0  0  0  0  0  0  0  0  0
    3.3136  -23.6743   -2.2564 C   0  0  0  0  0  0  0  0  0  0  0  0
    4.2725  -24.1965   -1.3930 C   0  0  0  0  0  0  0  0  0  0  0  0
    4.4999  -23.6151   -0.1838 C   0  0  0  0  0  0  0  0  0  0  0  0
    3.7458  -22.5003    0.1403 C   0  0  0  0  0  0  0  0  0  0  0  0
    2.7971  -21.9853   -0.7161 C   0  0  0  0  0  0  0  0  0  0  0  0
    2.0856  -20.8644   -0.3120 O   0  0  0  0  0  0  0  0  0  0  0  0
    2.0205  -19.5290   -2.7497 C   0  0  0  0  0  0  0  0  0  0  0  0
    3.3804  -19.3928   -3.0685 C   0  0  0  0  0  0  0  0  0  0  0  0
    4.0987  -18.2776   -2.7008 C   0  0  0  0  0  0  0  0  0  0  0  0
    3.4351  -17.2881   -2.0026 C   0  0  0  0  0  0  0  0  0  0  0  0
    2.1032  -17.4069   -1.6828 C   0  0  0  0  0  0  0  0  0  0  0  0
    1.3631  -18.5135   -2.0399 C   0  0  0  0  0  0  0  0  0  0  0  0
    4.1608  -16.0938   -1.5963 C   0  0  0  0  0  0  0  0  0  0  0  0
    3.5632  -15.2890   -0.8217 O   0  0  0  0  0  0  0  0  0  0  0  0
    5.4395  -15.8298   -2.0220 O   0  0  0  0  0  0  0  0  0  0  0  0
   -1.9890  -19.9245   -5.0521 O   0  0  0  0  0  0  0  0  0  0  0  0
  1  2  2  0
  2  3  1  0
  3  4  2  0
  4  5  1  0
  5  6  2  0
  5  7  1  0
  7  8  2  0
  8  9  1  0
  9 10  1  0
 10 11  2  0
 10 12  1  0
 12 13  2  0
 13 14  1  0
 14 15  2  0
 15 16  1  0
 16 17  2  0
 17 18  1  0
  9 19  1  0
 19 20  1  0
 20 21  2  0
 21 22  1  0
 22 23  2  0
 23 24  1  0
 22 25  1  0
 25 26  2  0
 25 27  1  0
  4 28  1  0
  6  1  1  0
 11  7  1  0
 17 12  1  0
 24 19  2  0
M  END
$$$$
