
     RDKit          3D

 25 24  0  0  0  0  0  0  0  0999 V2000
   -3.9026   -6.3163   -7.9531 C   0  0  0  0  0  0  0  0  0  0  0  0
   -5.1581   -6.2780   -7.8892 O   0  0  0  0  0  0  0  0  0  0  0  0
   -3.2042   -7.4445   -8.7130 C   0  0  0  0  0  0  0  0  0  0  0  0
   -2.4615   -8.2945   -7.7309 C   0  0  0  0  0  0  0  0  0  0  0  0
   -1.9362   -9.5953   -8.1678 C   0  0  0  0  0  0  0  0  0  0  0  0
   -1.0923  -10.3868   -7.1982 C   0  0  0  0  0  0  0  0  0  0  0  0
   -0.6958  -11.6450   -7.9483 C   0  0  0  0  0  0  0  0  0  0  0  0
   -0.0041  -12.6951   -7.1874 C   0  0  0  0  0  0  0  0  0  0  0  0
    0.2944  -13.9950   -7.8773 C   0  0  0  0  0  0  0  0  0  0  0  0
   -0.9603  -14.5523   -8.2458 F   0  0  0  0  0  0  0  0  0  0  0  0
    1.1046  -13.8599   -8.9769 F   0  0  0  0  0  0  0  0  0  0  0  0
    0.8706  -14.9476   -7.0500 F   0  0  0  0  0  0  0  0  0  0  0  0
   -0.8142  -13.0437   -6.0839 F   0  0  0  0  0  0  0  0  0  0  0  0
    1.1481  -12.1807   -6.5966 F   0  0  0  0  0  0  0  0  0  0  0  0
   -1.9051  -12.1457   -8.4585 F   0  0  0  0  0  0  0  0  0  0  0  0
    0.0580  -11.2594   -9.0624 F   0  0  0  0  0  0  0  0  0  0  0  0
    0.0467   -9.6499   -6.8821 F   0  0  0  0  0  0  0  0  0  0  0  0
   -1.7760  -10.6862   -6.0619 F   0  0  0  0  0  0  0  0  0  0  0  0
   -1.1001   -9.3846   -9.2803 F   0  0  0  0  0  0  0  0  0  0  0  0
   -3.0341  -10.3707   -8.5772 F   0  0  0  0  0  0  0  0  0  0  0  0
   -1.4811   -7.5419   -7.0667 F   0  0  0  0  0  0  0  0  0  0  0  0
   -3.4082   -8.5789   -6.7173 F   0  0  0  0  0  0  0  0  0  0  0  0
   -2.3866   -6.8341   -9.6551 F   0  0  0  0  0  0  0  0  0  0  0  0
   -4.1744   -8.1323   -9.3999 F   0  0  0  0  0  0  0  0  0  0  0  0
   -3.0998   -5.3491   -7.3449 O   0  0  0  0  0  0  0  0  0  0  0  0
  1  2  2  0
  1  3  1  0
  3  4  1  0
  4  5  1  0
  5  6  1  0
  6  7  1  0
  7  8  1  0
  8  9  1  0
  9 10  1  0
  9 11  1  0
  9 12  1  0
  8 13  1  0
  8 14  1  0
  7 15  1  0
  7 16  1  0
  6 17  1  0
  6 18  1  0
  5 19  1  0
  5 20  1  0
  4 21  1  0
  4 22  1  0
  3 23  1  0
  3 24  1  0
  1 25  1  0
M  END
$$$$
