
     RDKit          3D

 25 24  0  0  0  0  0  0  0  0999 V2000
    0.3619   -8.5875   -5.8217 C   0  0  0  0  0  0  0  0  0  0  0  0
   -0.8815   -8.7332   -5.7028 O   0  0  0  0  0  0  0  0  0  0  0  0
    0.9635   -8.1687   -7.1636 C   0  0  0  0  0  0  0  0  0  0  0  0
    1.0071   -9.3642   -8.0622 C   0  0  0  0  0  0  0  0  0  0  0  0
    1.4592   -9.1970   -9.4502 C   0  0  0  0  0  0  0  0  0  0  0  0
    1.5770  -10.4277  -10.3162 C   0  0  0  0  0  0  0  0  0  0  0  0
    1.7779   -9.9059  -11.7270 C   0  0  0  0  0  0  0  0  0  0  0  0
    1.8956  -10.8991  -12.8039 C   0  0  0  0  0  0  0  0  0  0  0  0
    1.9383  -10.4092  -14.2228 C   0  0  0  0  0  0  0  0  0  0  0  0
    0.6692   -9.8250  -14.4851 F   0  0  0  0  0  0  0  0  0  0  0  0
    2.9443   -9.5068  -14.4623 F   0  0  0  0  0  0  0  0  0  0  0  0
    2.0568  -11.4238  -15.1612 F   0  0  0  0  0  0  0  0  0  0  0  0
    0.7683  -11.7482  -12.7434 F   0  0  0  0  0  0  0  0  0  0  0  0
    2.9640  -11.7570  -12.5519 F   0  0  0  0  0  0  0  0  0  0  0  0
    0.6636   -9.0826  -11.9590 F   0  0  0  0  0  0  0  0  0  0  0  0
    2.8868   -9.0526  -11.7137 F   0  0  0  0  0  0  0  0  0  0  0  0
    2.6971  -11.1550   -9.9205 F   0  0  0  0  0  0  0  0  0  0  0  0
    0.4683  -11.2103  -10.2343 F   0  0  0  0  0  0  0  0  0  0  0  0
    2.7550   -8.6478   -9.4310 F   0  0  0  0  0  0  0  0  0  0  0  0
    0.5940   -8.2734  -10.0607 F   0  0  0  0  0  0  0  0  0  0  0  0
    1.6649  -10.4324   -7.4334 F   0  0  0  0  0  0  0  0  0  0  0  0
   -0.3375   -9.8002   -8.1418 F   0  0  0  0  0  0  0  0  0  0  0  0
    2.2142   -7.6346   -6.8822 F   0  0  0  0  0  0  0  0  0  0  0  0
    0.1865   -7.1490   -7.6561 F   0  0  0  0  0  0  0  0  0  0  0  0
    1.2379   -8.7970   -4.7546 O   0  0  0  0  0  0  0  0  0  0  0  0
  1  2  2  0
  1  3  1  0
  3  4  1  0
  4  5  1  0
  5  6  1  0
  6  7  1  0
  7  8  1  0
  8  9  1  0
  9 10  1  0
  9 11  1  0
  9 12  1  0
  8 13  1  0
  8 14  1  0
  7 15  1  0
  7 16  1  0
  6 17  1  0
  6 18  1  0
  5 19  1  0
  5 20  1  0
  4 21  1  0
  4 22  1  0
  3 23  1  0
  3 24  1  0
  1 25  1  0
M  END
$$$$
