
     RDKit          3D

 25 24  0  0  0  0  0  0  0  0999 V2000
   -9.3018   -5.4601   -9.4151 C   0  0  0  0  0  0  0  0  0  0  0  0
   -9.4950   -6.3989  -10.2293 O   0  0  0  0  0  0  0  0  0  0  0  0
   -7.9218   -5.2553   -8.7892 C   0  0  0  0  0  0  0  0  0  0  0  0
   -7.0825   -4.4538   -9.7335 C   0  0  0  0  0  0  0  0  0  0  0  0
   -5.7127   -4.0949   -9.3413 C   0  0  0  0  0  0  0  0  0  0  0  0
   -4.8918   -3.2615  -10.2953 C   0  0  0  0  0  0  0  0  0  0  0  0
   -3.6103   -2.9437   -9.5472 C   0  0  0  0  0  0  0  0  0  0  0  0
   -2.6556   -2.0357  -10.1986 C   0  0  0  0  0  0  0  0  0  0  0  0
   -1.4230   -1.6351   -9.4402 C   0  0  0  0  0  0  0  0  0  0  0  0
   -0.8919   -0.4978  -10.1075 F   0  0  0  0  0  0  0  0  0  0  0  0
   -1.6591   -1.3528   -8.1180 F   0  0  0  0  0  0  0  0  0  0  0  0
   -0.4054   -2.5764   -9.4899 F   0  0  0  0  0  0  0  0  0  0  0  0
   -3.3238   -0.8230  -10.4784 F   0  0  0  0  0  0  0  0  0  0  0  0
   -2.3161   -2.5198  -11.4601 F   0  0  0  0  0  0  0  0  0  0  0  0
   -4.0419   -2.3875   -8.3316 F   0  0  0  0  0  0  0  0  0  0  0  0
   -2.9965   -4.1565   -9.2154 F   0  0  0  0  0  0  0  0  0  0  0  0
   -4.5997   -4.0216  -11.4254 F   0  0  0  0  0  0  0  0  0  0  0  0
   -5.5427   -2.1253  -10.6612 F   0  0  0  0  0  0  0  0  0  0  0  0
   -4.9738   -5.2815   -9.1762 F   0  0  0  0  0  0  0  0  0  0  0  0
   -5.7931   -3.4446   -8.0984 F   0  0  0  0  0  0  0  0  0  0  0  0
   -7.1187   -5.0092  -11.0216 F   0  0  0  0  0  0  0  0  0  0  0  0
   -7.7782   -3.2292   -9.8781 F   0  0  0  0  0  0  0  0  0  0  0  0
   -7.4173   -6.5231   -8.5307 F   0  0  0  0  0  0  0  0  0  0  0  0
   -8.1134   -4.6381   -7.5774 F   0  0  0  0  0  0  0  0  0  0  0  0
  -10.3184   -4.5755   -9.0493 O   0  0  0  0  0  0  0  0  0  0  0  0
  1  2  2  0
  1  3  1  0
  3  4  1  0
  4  5  1  0
  5  6  1  0
  6  7  1  0
  7  8  1  0
  8  9  1  0
  9 10  1  0
  9 11  1  0
  9 12  1  0
  8 13  1  0
  8 14  1  0
  7 15  1  0
  7 16  1  0
  6 17  1  0
  6 18  1  0
  5 19  1  0
  5 20  1  0
  4 21  1  0
  4 22  1  0
  3 23  1  0
  3 24  1  0
  1 25  1  0
M  END
$$$$
