
     RDKit          3D

 25 24  0  0  0  0  0  0  0  0999 V2000
   15.1184   -7.2760   11.3342 C   0  0  0  0  0  0  0  0  0  0  0  0
   14.8757   -8.2274   12.0858 O   0  0  0  0  0  0  0  0  0  0  0  0
   14.1907   -6.2545   10.8479 C   0  0  0  0  0  0  0  0  0  0  0  0
   12.8626   -6.7036   10.3763 C   0  0  0  0  0  0  0  0  0  0  0  0
   12.0641   -5.7552    9.5580 C   0  0  0  0  0  0  0  0  0  0  0  0
   10.6791   -6.3471    9.3911 C   0  0  0  0  0  0  0  0  0  0  0  0
    9.8035   -5.4540    8.5218 C   0  0  0  0  0  0  0  0  0  0  0  0
    8.3752   -5.7696    8.8868 C   0  0  0  0  0  0  0  0  0  0  0  0
    7.3978   -4.8138    8.2431 C   0  0  0  0  0  0  0  0  0  0  0  0
    7.8163   -3.5096    8.2344 F   0  0  0  0  0  0  0  0  0  0  0  0
    7.1130   -5.2350    6.9520 F   0  0  0  0  0  0  0  0  0  0  0  0
    6.2032   -4.8927    8.9314 F   0  0  0  0  0  0  0  0  0  0  0  0
    8.0130   -7.0410    8.5558 F   0  0  0  0  0  0  0  0  0  0  0  0
    8.2762   -5.6242   10.2541 F   0  0  0  0  0  0  0  0  0  0  0  0
   10.0719   -5.6115    7.1944 F   0  0  0  0  0  0  0  0  0  0  0  0
    9.9931   -4.1231    8.8406 F   0  0  0  0  0  0  0  0  0  0  0  0
   10.7453   -7.6217    8.8662 F   0  0  0  0  0  0  0  0  0  0  0  0
   10.1008   -6.4506   10.6413 F   0  0  0  0  0  0  0  0  0  0  0  0
   12.6948   -5.5743    8.3462 F   0  0  0  0  0  0  0  0  0  0  0  0
   11.9188   -4.5095   10.1120 F   0  0  0  0  0  0  0  0  0  0  0  0
   13.0872   -7.8414    9.5811 F   0  0  0  0  0  0  0  0  0  0  0  0
   12.1032   -7.1740   11.4455 F   0  0  0  0  0  0  0  0  0  0  0  0
   14.0803   -5.2228   11.7749 F   0  0  0  0  0  0  0  0  0  0  0  0
   14.8102   -5.6444    9.7406 F   0  0  0  0  0  0  0  0  0  0  0  0
   16.4576   -7.1654   10.8930 O   0  0  0  0  0  0  0  0  0  0  0  0
  1  2  2  0
  1  3  1  0
  3  4  1  0
  4  5  1  0
  5  6  1  0
  6  7  1  0
  7  8  1  0
  8  9  1  0
  9 10  1  0
  9 11  1  0
  9 12  1  0
  8 13  1  0
  8 14  1  0
  7 15  1  0
  7 16  1  0
  6 17  1  0
  6 18  1  0
  5 19  1  0
  5 20  1  0
  4 21  1  0
  4 22  1  0
  3 23  1  0
  3 24  1  0
  1 25  1  0
M  END
$$$$
