
     RDKit          3D

 25 24  0  0  0  0  0  0  0  0999 V2000
   13.5034   -5.1865   10.0172 C   0  0  0  0  0  0  0  0  0  0  0  0
   13.4404   -6.0565    9.1407 O   0  0  0  0  0  0  0  0  0  0  0  0
   12.5188   -4.1499   10.3281 C   0  0  0  0  0  0  0  0  0  0  0  0
   11.0953   -4.4572   10.0692 C   0  0  0  0  0  0  0  0  0  0  0  0
   10.5223   -5.6667   10.7137 C   0  0  0  0  0  0  0  0  0  0  0  0
    9.0363   -5.4300   10.8938 C   0  0  0  0  0  0  0  0  0  0  0  0
    8.4661   -6.3329   11.9799 C   0  0  0  0  0  0  0  0  0  0  0  0
    6.9732   -6.3616   11.7720 C   0  0  0  0  0  0  0  0  0  0  0  0
    6.2709   -7.2189   12.7992 C   0  0  0  0  0  0  0  0  0  0  0  0
    6.6343   -8.5391   12.7665 F   0  0  0  0  0  0  0  0  0  0  0  0
    6.4795   -6.6950   14.0671 F   0  0  0  0  0  0  0  0  0  0  0  0
    4.9109   -7.1266   12.5784 F   0  0  0  0  0  0  0  0  0  0  0  0
    6.4119   -5.1199   11.7936 F   0  0  0  0  0  0  0  0  0  0  0  0
    6.7586   -6.9215   10.5306 F   0  0  0  0  0  0  0  0  0  0  0  0
    8.8324   -5.9246   13.2281 F   0  0  0  0  0  0  0  0  0  0  0  0
    8.8993   -7.6341   11.8121 F   0  0  0  0  0  0  0  0  0  0  0  0
    8.7769   -4.1047   11.1780 F   0  0  0  0  0  0  0  0  0  0  0  0
    8.4053   -5.7219    9.7002 F   0  0  0  0  0  0  0  0  0  0  0  0
   11.1593   -5.8719   11.9183 F   0  0  0  0  0  0  0  0  0  0  0  0
   10.6736   -6.8217    9.9906 F   0  0  0  0  0  0  0  0  0  0  0  0
   10.3590   -3.3553   10.5394 F   0  0  0  0  0  0  0  0  0  0  0  0
   10.8466   -4.4790    8.6985 F   0  0  0  0  0  0  0  0  0  0  0  0
   12.7107   -3.6752   11.6217 F   0  0  0  0  0  0  0  0  0  0  0  0
   12.8312   -3.0433    9.5158 F   0  0  0  0  0  0  0  0  0  0  0  0
   14.6716   -5.1986   10.8145 O   0  0  0  0  0  0  0  0  0  0  0  0
  1  2  2  0
  1  3  1  0
  3  4  1  0
  4  5  1  0
  5  6  1  0
  6  7  1  0
  7  8  1  0
  8  9  1  0
  9 10  1  0
  9 11  1  0
  9 12  1  0
  8 13  1  0
  8 14  1  0
  7 15  1  0
  7 16  1  0
  6 17  1  0
  6 18  1  0
  5 19  1  0
  5 20  1  0
  4 21  1  0
  4 22  1  0
  3 23  1  0
  3 24  1  0
  1 25  1  0
M  END
$$$$
