
     RDKit          3D

 25 24  0  0  0  0  0  0  0  0999 V2000
   12.8574   -4.4627    7.4542 C   0  0  0  0  0  0  0  0  0  0  0  0
   13.1326   -3.4024    8.0279 O   0  0  0  0  0  0  0  0  0  0  0  0
   11.7983   -5.4161    7.7855 C   0  0  0  0  0  0  0  0  0  0  0  0
   10.7382   -4.9673    8.7144 C   0  0  0  0  0  0  0  0  0  0  0  0
    9.7492   -5.9767    9.1721 C   0  0  0  0  0  0  0  0  0  0  0  0
    9.0364   -5.4051   10.3810 C   0  0  0  0  0  0  0  0  0  0  0  0
    8.2550   -6.4856   11.1172 C   0  0  0  0  0  0  0  0  0  0  0  0
    7.3357   -5.7712   12.0750 C   0  0  0  0  0  0  0  0  0  0  0  0
    6.3827   -6.7193   12.7648 C   0  0  0  0  0  0  0  0  0  0  0  0
    6.9239   -7.9448   13.0501 F   0  0  0  0  0  0  0  0  0  0  0  0
    5.8922   -6.1303   13.9215 F   0  0  0  0  0  0  0  0  0  0  0  0
    5.2858   -6.8978   11.9451 F   0  0  0  0  0  0  0  0  0  0  0  0
    8.0085   -5.0690   13.0298 F   0  0  0  0  0  0  0  0  0  0  0  0
    6.5898   -4.8895   11.3221 F   0  0  0  0  0  0  0  0  0  0  0  0
    9.0780   -7.3868   11.7250 F   0  0  0  0  0  0  0  0  0  0  0  0
    7.4351   -7.1763   10.2457 F   0  0  0  0  0  0  0  0  0  0  0  0
    9.9268   -4.7837   11.2329 F   0  0  0  0  0  0  0  0  0  0  0  0
    8.1504   -4.4401    9.9429 F   0  0  0  0  0  0  0  0  0  0  0  0
   10.4145   -7.1454    9.4732 F   0  0  0  0  0  0  0  0  0  0  0  0
    8.7948   -6.2996    8.2421 F   0  0  0  0  0  0  0  0  0  0  0  0
   11.3932   -4.4864    9.8621 F   0  0  0  0  0  0  0  0  0  0  0  0
   10.0830   -3.8515    8.1979 F   0  0  0  0  0  0  0  0  0  0  0  0
   11.2607   -5.9623    6.6243 F   0  0  0  0  0  0  0  0  0  0  0  0
   12.4250   -6.5106    8.4111 F   0  0  0  0  0  0  0  0  0  0  0  0
   13.6678   -4.7900    6.3422 O   0  0  0  0  0  0  0  0  0  0  0  0
  1  2  2  0
  1  3  1  0
  3  4  1  0
  4  5  1  0
  5  6  1  0
  6  7  1  0
  7  8  1  0
  8  9  1  0
  9 10  1  0
  9 11  1  0
  9 12  1  0
  8 13  1  0
  8 14  1  0
  7 15  1  0
  7 16  1  0
  6 17  1  0
  6 18  1  0
  5 19  1  0
  5 20  1  0
  4 21  1  0
  4 22  1  0
  3 23  1  0
  3 24  1  0
  1 25  1  0
M  END
$$$$
