
     RDKit          3D

 25 24  0  0  0  0  0  0  0  0999 V2000
   15.2804   -5.5020    9.7263 C   0  0  0  0  0  0  0  0  0  0  0  0
   15.9362   -6.5372    9.5607 O   0  0  0  0  0  0  0  0  0  0  0  0
   13.9529   -5.3644   10.3258 C   0  0  0  0  0  0  0  0  0  0  0  0
   12.7805   -5.5156    9.4366 C   0  0  0  0  0  0  0  0  0  0  0  0
   11.4402   -5.2235   10.0065 C   0  0  0  0  0  0  0  0  0  0  0  0
   10.4072   -5.5888    8.9597 C   0  0  0  0  0  0  0  0  0  0  0  0
    8.9952   -5.4628    9.5168 C   0  0  0  0  0  0  0  0  0  0  0  0
    8.0687   -5.4191    8.3283 C   0  0  0  0  0  0  0  0  0  0  0  0
    6.6246   -5.2450    8.7374 C   0  0  0  0  0  0  0  0  0  0  0  0
    6.0012   -6.4113    9.0938 F   0  0  0  0  0  0  0  0  0  0  0  0
    6.5387   -4.3203    9.7685 F   0  0  0  0  0  0  0  0  0  0  0  0
    5.9424   -4.6825    7.6765 F   0  0  0  0  0  0  0  0  0  0  0  0
    8.3867   -4.4307    7.4456 F   0  0  0  0  0  0  0  0  0  0  0  0
    8.1877   -6.6356    7.6907 F   0  0  0  0  0  0  0  0  0  0  0  0
    8.8668   -4.3873   10.3449 F   0  0  0  0  0  0  0  0  0  0  0  0
    8.6476   -6.5942   10.2296 F   0  0  0  0  0  0  0  0  0  0  0  0
   10.5538   -4.8132    7.8276 F   0  0  0  0  0  0  0  0  0  0  0  0
   10.6187   -6.9013    8.5847 F   0  0  0  0  0  0  0  0  0  0  0  0
   11.3817   -3.8881   10.3417 F   0  0  0  0  0  0  0  0  0  0  0  0
   11.1420   -5.9252   11.1461 F   0  0  0  0  0  0  0  0  0  0  0  0
   12.9744   -4.6222    8.3681 F   0  0  0  0  0  0  0  0  0  0  0  0
   12.7854   -6.7744    8.8395 F   0  0  0  0  0  0  0  0  0  0  0  0
   13.8462   -6.1742   11.4521 F   0  0  0  0  0  0  0  0  0  0  0  0
   13.8806   -4.0578   10.8450 F   0  0  0  0  0  0  0  0  0  0  0  0
   15.8920   -4.3072    9.2805 O   0  0  0  0  0  0  0  0  0  0  0  0
  1  2  2  0
  1  3  1  0
  3  4  1  0
  4  5  1  0
  5  6  1  0
  6  7  1  0
  7  8  1  0
  8  9  1  0
  9 10  1  0
  9 11  1  0
  9 12  1  0
  8 13  1  0
  8 14  1  0
  7 15  1  0
  7 16  1  0
  6 17  1  0
  6 18  1  0
  5 19  1  0
  5 20  1  0
  4 21  1  0
  4 22  1  0
  3 23  1  0
  3 24  1  0
  1 25  1  0
M  END
$$$$
