
     RDKit          3D

  4  3  0  0  0  0  0  0  0  0999 V2000
   -0.1125   13.5266   -5.3152 C   0  0  0  0  0  0  0  0  0  0  0  0
   -0.3611   13.6411   -3.8220 C   0  0  0  0  0  0  0  0  0  0  0  0
    0.4239   12.2292   -3.0816 Cl  0  0  0  0  0  0  0  0  0  0  0  0
   -0.9946   14.8856   -6.0722 Cl  0  0  0  0  0  0  0  0  0  0  0  0
  1  2  1  0
  2  3  1  0
  1  4  1  0
M  END
$$$$
