
     RDKit          3D

  4  3  0  0  0  0  0  0  0  0999 V2000
  -10.1342   -8.3048  -10.5204 C   0  0  0  0  0  0  0  0  0  0  0  0
  -11.3293   -8.9325  -11.2145 C   0  0  0  0  0  0  0  0  0  0  0  0
  -12.5167   -9.2762   -9.9379 Cl  0  0  0  0  0  0  0  0  0  0  0  0
   -8.9916   -7.8436  -11.8164 Cl  0  0  0  0  0  0  0  0  0  0  0  0
  1  2  1  0
  2  3  1  0
  1  4  1  0
M  END
$$$$
