
     RDKit          3D

  4  3  0  0  0  0  0  0  0  0999 V2000
    8.3906   11.6923   -5.1169 C   0  0  0  0  0  0  0  0  0  0  0  0
    7.2808   10.9696   -4.3750 C   0  0  0  0  0  0  0  0  0  0  0  0
    5.7558   11.6355   -4.9984 Cl  0  0  0  0  0  0  0  0  0  0  0  0
    9.9124   11.2535   -4.2865 Cl  0  0  0  0  0  0  0  0  0  0  0  0
  1  2  1  0
  2  3  1  0
  1  4  1  0
M  END
$$$$
