
     RDKit          3D

  4  3  0  0  0  0  0  0  0  0999 V2000
   -4.3977    9.3922  -12.0337 C   0  0  0  0  0  0  0  0  0  0  0  0
   -2.9869    9.6153  -11.5195 C   0  0  0  0  0  0  0  0  0  0  0  0
   -1.9241    9.5267  -12.9409 Cl  0  0  0  0  0  0  0  0  0  0  0  0
   -5.4624   10.4164  -11.0261 Cl  0  0  0  0  0  0  0  0  0  0  0  0
  1  2  1  0
  2  3  1  0
  1  4  1  0
M  END
$$$$
