
     RDKit          3D

  4  3  0  0  0  0  0  0  0  0999 V2000
   10.0812    4.4616  -13.7958 C   0  0  0  0  0  0  0  0  0  0  0  0
    9.6721    4.9068  -12.4034 C   0  0  0  0  0  0  0  0  0  0  0  0
   11.0879    4.6378  -11.3636 Cl  0  0  0  0  0  0  0  0  0  0  0  0
    8.8575    5.1340  -14.9130 Cl  0  0  0  0  0  0  0  0  0  0  0  0
  1  2  1  0
  2  3  1  0
  1  4  1  0
M  END
$$$$
