
     RDKit          3D

  4  3  0  0  0  0  0  0  0  0999 V2000
    7.0345   10.3542   -5.5512 C   0  0  0  0  0  0  0  0  0  0  0  0
    7.2933   11.5269   -4.6227 C   0  0  0  0  0  0  0  0  0  0  0  0
    9.0136   11.4400   -4.1860 Cl  0  0  0  0  0  0  0  0  0  0  0  0
    5.2997   10.4310   -5.9784 Cl  0  0  0  0  0  0  0  0  0  0  0  0
  1  2  1  0
  2  3  1  0
  1  4  1  0
M  END
$$$$
