
     RDKit          3D

  4  3  0  0  0  0  0  0  0  0999 V2000
    4.6926   -4.9911    1.0268 C   0  0  0  0  0  0  0  0  0  0  0  0
    4.2304   -3.7269    1.7286 C   0  0  0  0  0  0  0  0  0  0  0  0
    3.3393   -4.2609    3.1704 Cl  0  0  0  0  0  0  0  0  0  0  0  0
    5.5334   -4.4568   -0.4583 Cl  0  0  0  0  0  0  0  0  0  0  0  0
  1  2  1  0
  2  3  1  0
  1  4  1  0
M  END
$$$$
