
     RDKit          3D

 29 28  0  0  0  0  0  0  0  0999 V2000
    1.5473   -1.8039  -10.3339 C   0  0  0  0  0  0  0  0  0  0  0  0
    0.6687   -1.3242  -11.4404 C   0  0  0  0  0  0  0  0  0  0  0  0
    1.3726   -1.7701  -12.7489 C   0  0  0  0  0  0  0  0  0  0  0  0
    0.5421   -1.4641  -13.9323 C   0  0  0  0  0  0  0  0  0  0  0  0
    1.1728   -1.5765  -15.2841 C   0  0  0  0  0  0  0  0  0  0  0  0
    2.3698   -0.8803  -15.3318 F   0  0  0  0  0  0  0  0  0  0  0  0
    1.5626   -2.9278  -15.4952 F   0  0  0  0  0  0  0  0  0  0  0  0
    0.0867   -1.2036  -16.6090 S   0  0  0  0  0  0  0  0  0  0  0  0
   -0.2991    0.2699  -16.5463 O   0  0  0  0  0  0  0  0  0  0  0  0
   -1.1426   -2.0109  -16.6176 O   0  0  0  0  0  0  0  0  0  0  0  0
    0.9810   -1.3617  -18.0433 O   0  0  0  0  0  0  0  0  0  0  0  0
   -0.6278   -2.2136  -13.9809 F   0  0  0  0  0  0  0  0  0  0  0  0
    0.0706   -0.1335  -13.8724 F   0  0  0  0  0  0  0  0  0  0  0  0
    1.6533   -3.1177  -12.6764 F   0  0  0  0  0  0  0  0  0  0  0  0
    2.5740   -1.0948  -12.8324 F   0  0  0  0  0  0  0  0  0  0  0  0
    0.4619    0.0191  -11.4382 F   0  0  0  0  0  0  0  0  0  0  0  0
   -0.5479   -1.9714  -11.3409 F   0  0  0  0  0  0  0  0  0  0  0  0
    0.8495   -1.9615   -9.0210 C   0  0  0  0  0  0  0  0  0  0  0  0
    1.9449   -2.2577   -8.0006 C   0  0  0  0  0  0  0  0  0  0  0  0
    1.4096   -2.3382   -6.6047 C   0  0  0  0  0  0  0  0  0  0  0  0
    0.8978   -1.1525   -6.1470 F   0  0  0  0  0  0  0  0  0  0  0  0
    2.4677   -2.7014   -5.7916 F   0  0  0  0  0  0  0  0  0  0  0  0
    0.4772   -3.3463   -6.5270 F   0  0  0  0  0  0  0  0  0  0  0  0
    2.5680   -3.4705   -8.2757 F   0  0  0  0  0  0  0  0  0  0  0  0
    2.8756   -1.2428   -8.1240 F   0  0  0  0  0  0  0  0  0  0  0  0
    0.2709   -0.7761   -8.6145 F   0  0  0  0  0  0  0  0  0  0  0  0
   -0.1169   -2.9300   -9.0200 F   0  0  0  0  0  0  0  0  0  0  0  0
    2.6148   -0.9297  -10.1217 F   0  0  0  0  0  0  0  0  0  0  0  0
    2.1203   -3.0014  -10.7102 F   0  0  0  0  0  0  0  0  0  0  0  0
  1  2  1  0
  2  3  1  0
  3  4  1  0
  4  5  1  0
  5  6  1  0
  5  7  1  0
  5  8  1  0
  8  9  2  0
  8 10  2  0
  8 11  1  0
  4 12  1  0
  4 13  1  0
  3 14  1  0
  3 15  1  0
  2 16  1  0
  2 17  1  0
  1 18  1  0
 18 19  1  0
 19 20  1  0
 20 21  1  0
 20 22  1  0
 20 23  1  0
 19 24  1  0
 19 25  1  0
 18 26  1  0
 18 27  1  0
  1 28  1  0
  1 29  1  0
M  END
$$$$
