
     RDKit          3D

 29 28  0  0  0  0  0  0  0  0999 V2000
   -0.3169   -1.5150  -10.0138 C   0  0  0  0  0  0  0  0  0  0  0  0
    0.1197   -1.2419  -11.4143 C   0  0  0  0  0  0  0  0  0  0  0  0
   -1.1445   -1.4507  -12.2886 C   0  0  0  0  0  0  0  0  0  0  0  0
   -0.8929   -1.0611  -13.6918 C   0  0  0  0  0  0  0  0  0  0  0  0
   -2.0609   -0.9905  -14.6239 C   0  0  0  0  0  0  0  0  0  0  0  0
   -2.8795   -2.0988  -14.4774 F   0  0  0  0  0  0  0  0  0  0  0  0
   -2.8927    0.0944  -14.2321 F   0  0  0  0  0  0  0  0  0  0  0  0
   -1.6237   -0.6514  -16.2875 S   0  0  0  0  0  0  0  0  0  0  0  0
   -1.0209   -1.9026  -16.9163 O   0  0  0  0  0  0  0  0  0  0  0  0
   -0.6690    0.4569  -16.4392 O   0  0  0  0  0  0  0  0  0  0  0  0
   -3.0698   -0.3875  -17.1367 O   0  0  0  0  0  0  0  0  0  0  0  0
   -0.2258    0.1533  -13.8048 F   0  0  0  0  0  0  0  0  0  0  0  0
   -0.0066   -1.9746  -14.3052 F   0  0  0  0  0  0  0  0  0  0  0  0
   -2.1899   -0.7285  -11.7544 F   0  0  0  0  0  0  0  0  0  0  0  0
   -1.4833   -2.7879  -12.2273 F   0  0  0  0  0  0  0  0  0  0  0  0
    1.1368   -2.0365  -11.8403 F   0  0  0  0  0  0  0  0  0  0  0  0
    0.5109    0.0805  -11.4974 F   0  0  0  0  0  0  0  0  0  0  0  0
    0.7281   -1.2390   -8.9807 C   0  0  0  0  0  0  0  0  0  0  0  0
    0.2383   -1.9142   -7.7028 C   0  0  0  0  0  0  0  0  0  0  0  0
    1.2504   -1.8415   -6.6020 C   0  0  0  0  0  0  0  0  0  0  0  0
    1.7121   -0.5729   -6.3677 F   0  0  0  0  0  0  0  0  0  0  0  0
    2.3178   -2.6316   -6.9880 F   0  0  0  0  0  0  0  0  0  0  0  0
    0.7280   -2.4005   -5.4591 F   0  0  0  0  0  0  0  0  0  0  0  0
   -0.9256   -1.3128   -7.2355 F   0  0  0  0  0  0  0  0  0  0  0  0
   -0.0443   -3.2250   -8.0398 F   0  0  0  0  0  0  0  0  0  0  0  0
    1.9213   -1.8570   -9.2960 F   0  0  0  0  0  0  0  0  0  0  0  0
    0.9760    0.0923   -8.7853 F   0  0  0  0  0  0  0  0  0  0  0  0
   -0.6998   -2.8481   -9.8552 F   0  0  0  0  0  0  0  0  0  0  0  0
   -1.4492   -0.7720   -9.7495 F   0  0  0  0  0  0  0  0  0  0  0  0
  1  2  1  0
  2  3  1  0
  3  4  1  0
  4  5  1  0
  5  6  1  0
  5  7  1  0
  5  8  1  0
  8  9  2  0
  8 10  2  0
  8 11  1  0
  4 12  1  0
  4 13  1  0
  3 14  1  0
  3 15  1  0
  2 16  1  0
  2 17  1  0
  1 18  1  0
 18 19  1  0
 19 20  1  0
 20 21  1  0
 20 22  1  0
 20 23  1  0
 19 24  1  0
 19 25  1  0
 18 26  1  0
 18 27  1  0
  1 28  1  0
  1 29  1  0
M  END
$$$$
