
     RDKit          3D

 29 28  0  0  0  0  0  0  0  0999 V2000
    5.8539    5.3718    1.2288 C   0  0  0  0  0  0  0  0  0  0  0  0
    6.9045    5.4156    2.2876 C   0  0  0  0  0  0  0  0  0  0  0  0
    6.7919    4.0618    3.0366 C   0  0  0  0  0  0  0  0  0  0  0  0
    8.0437    3.7440    3.7550 C   0  0  0  0  0  0  0  0  0  0  0  0
    8.0771    2.5108    4.6011 C   0  0  0  0  0  0  0  0  0  0  0  0
    6.9598    2.4397    5.4175 F   0  0  0  0  0  0  0  0  0  0  0  0
    7.9477    1.3739    3.7566 F   0  0  0  0  0  0  0  0  0  0  0  0
    9.5903    2.2744    5.4543 S   0  0  0  0  0  0  0  0  0  0  0  0
    9.6396    3.2034    6.6621 O   0  0  0  0  0  0  0  0  0  0  0  0
   10.7839    2.5135    4.6290 O   0  0  0  0  0  0  0  0  0  0  0  0
    9.5522    0.7080    6.1077 O   0  0  0  0  0  0  0  0  0  0  0  0
    9.1477    3.6730    2.9130 F   0  0  0  0  0  0  0  0  0  0  0  0
    8.3814    4.7903    4.6425 F   0  0  0  0  0  0  0  0  0  0  0  0
    6.4736    3.0694    2.1345 F   0  0  0  0  0  0  0  0  0  0  0  0
    5.7487    4.1627    3.9354 F   0  0  0  0  0  0  0  0  0  0  0  0
    6.7742    6.4565    3.1517 F   0  0  0  0  0  0  0  0  0  0  0  0
    8.1391    5.4879    1.6719 F   0  0  0  0  0  0  0  0  0  0  0  0
    6.2536    6.0181   -0.0589 C   0  0  0  0  0  0  0  0  0  0  0  0
    5.0871    5.7930   -1.0168 C   0  0  0  0  0  0  0  0  0  0  0  0
    5.3713    6.3243   -2.3873 C   0  0  0  0  0  0  0  0  0  0  0  0
    5.6595    7.6637   -2.4048 F   0  0  0  0  0  0  0  0  0  0  0  0
    4.2323    6.1117   -3.1423 F   0  0  0  0  0  0  0  0  0  0  0  0
    6.3806    5.5901   -2.9652 F   0  0  0  0  0  0  0  0  0  0  0  0
    4.8043    4.4375   -1.1486 F   0  0  0  0  0  0  0  0  0  0  0  0
    3.9931    6.4214   -0.4512 F   0  0  0  0  0  0  0  0  0  0  0  0
    6.3645    7.3869    0.0797 F   0  0  0  0  0  0  0  0  0  0  0  0
    7.4292    5.5450   -0.5747 F   0  0  0  0  0  0  0  0  0  0  0  0
    4.6837    6.0043    1.6523 F   0  0  0  0  0  0  0  0  0  0  0  0
    5.5026    4.0560    1.0071 F   0  0  0  0  0  0  0  0  0  0  0  0
  1  2  1  0
  2  3  1  0
  3  4  1  0
  4  5  1  0
  5  6  1  0
  5  7  1  0
  5  8  1  0
  8  9  2  0
  8 10  2  0
  8 11  1  0
  4 12  1  0
  4 13  1  0
  3 14  1  0
  3 15  1  0
  2 16  1  0
  2 17  1  0
  1 18  1  0
 18 19  1  0
 19 20  1  0
 20 21  1  0
 20 22  1  0
 20 23  1  0
 19 24  1  0
 19 25  1  0
 18 26  1  0
 18 27  1  0
  1 28  1  0
  1 29  1  0
M  END
$$$$
