
     RDKit          3D

 29 28  0  0  0  0  0  0  0  0999 V2000
   -0.3900   -1.4677   -9.9331 C   0  0  0  0  0  0  0  0  0  0  0  0
   -0.0631   -1.1106  -11.3446 C   0  0  0  0  0  0  0  0  0  0  0  0
   -1.3339   -1.4593  -12.1631 C   0  0  0  0  0  0  0  0  0  0  0  0
   -1.2514   -0.9142  -13.5342 C   0  0  0  0  0  0  0  0  0  0  0  0
   -2.3343   -1.2734  -14.5018 C   0  0  0  0  0  0  0  0  0  0  0  0
   -2.3487   -2.6373  -14.7454 F   0  0  0  0  0  0  0  0  0  0  0  0
   -3.5940   -1.0293  -13.8886 F   0  0  0  0  0  0  0  0  0  0  0  0
   -2.3398   -0.2968  -15.9579 S   0  0  0  0  0  0  0  0  0  0  0  0
   -3.3720   -0.8507  -16.9335 O   0  0  0  0  0  0  0  0  0  0  0  0
   -1.0374   -0.2332  -16.6382 O   0  0  0  0  0  0  0  0  0  0  0  0
   -2.9249    1.2368  -15.5247 O   0  0  0  0  0  0  0  0  0  0  0  0
   -1.1451    0.4717  -13.5601 F   0  0  0  0  0  0  0  0  0  0  0  0
   -0.0603   -1.3411  -14.1631 F   0  0  0  0  0  0  0  0  0  0  0  0
   -2.4443   -0.9763  -11.5046 F   0  0  0  0  0  0  0  0  0  0  0  0
   -1.4398   -2.8351  -12.2116 F   0  0  0  0  0  0  0  0  0  0  0  0
    1.0228   -1.7599  -11.8409 F   0  0  0  0  0  0  0  0  0  0  0  0
    0.1536    0.2523  -11.4090 F   0  0  0  0  0  0  0  0  0  0  0  0
    0.7003   -1.1650   -8.9557 C   0  0  0  0  0  0  0  0  0  0  0  0
    0.3077   -1.8733   -7.6622 C   0  0  0  0  0  0  0  0  0  0  0  0
    1.3676   -1.7580   -6.6111 C   0  0  0  0  0  0  0  0  0  0  0  0
    2.4914   -2.4921   -6.8861 F   0  0  0  0  0  0  0  0  0  0  0  0
    0.8151   -2.2278   -5.4336 F   0  0  0  0  0  0  0  0  0  0  0  0
    1.6750   -0.4325   -6.4113 F   0  0  0  0  0  0  0  0  0  0  0  0
   -0.8604   -1.3345   -7.1332 F   0  0  0  0  0  0  0  0  0  0  0  0
    0.0746   -3.1941   -7.9979 F   0  0  0  0  0  0  0  0  0  0  0  0
    1.8959   -1.7340   -9.3452 F   0  0  0  0  0  0  0  0  0  0  0  0
    0.9095    0.1722   -8.7557 F   0  0  0  0  0  0  0  0  0  0  0  0
   -0.6768   -2.8283   -9.8100 F   0  0  0  0  0  0  0  0  0  0  0  0
   -1.5474   -0.8120   -9.5666 F   0  0  0  0  0  0  0  0  0  0  0  0
  1  2  1  0
  2  3  1  0
  3  4  1  0
  4  5  1  0
  5  6  1  0
  5  7  1  0
  5  8  1  0
  8  9  2  0
  8 10  2  0
  8 11  1  0
  4 12  1  0
  4 13  1  0
  3 14  1  0
  3 15  1  0
  2 16  1  0
  2 17  1  0
  1 18  1  0
 18 19  1  0
 19 20  1  0
 20 21  1  0
 20 22  1  0
 20 23  1  0
 19 24  1  0
 19 25  1  0
 18 26  1  0
 18 27  1  0
  1 28  1  0
  1 29  1  0
M  END
$$$$
