
     RDKit          3D

  5  4  0  0  0  0  0  0  0  0999 V2000
  -17.7028   -0.1864  -15.5864 C   0  0  0  0  0  0  0  0  0  0  0  0
  -17.5001    0.9107  -14.6134 C   0  0  0  0  0  0  0  0  0  0  0  0
  -16.4192    1.5683  -14.6619 O   0  0  0  0  0  0  0  0  0  0  0  0
  -18.4754    1.2233  -13.6586 O   0  0  0  0  0  0  0  0  0  0  0  0
  -16.8001   -1.2111  -15.4002 F   0  0  0  0  0  0  0  0  0  0  0  0
  1  2  1  0
  2  3  2  0
  2  4  1  0
  1  5  1  0
M  END
$$$$
