
     RDKit          3D

  5  4  0  0  0  0  0  0  0  0999 V2000
   -8.5767    6.9709    6.3211 C   0  0  0  0  0  0  0  0  0  0  0  0
   -8.4973    6.4673    7.7109 C   0  0  0  0  0  0  0  0  0  0  0  0
   -8.6381    7.2925    8.6607 O   0  0  0  0  0  0  0  0  0  0  0  0
   -8.2736    5.1114    7.9799 O   0  0  0  0  0  0  0  0  0  0  0  0
   -8.9130    8.3067    6.2775 F   0  0  0  0  0  0  0  0  0  0  0  0
  1  2  1  0
  2  3  2  0
  2  4  1  0
  1  5  1  0
M  END
$$$$
