
     RDKit          3D

  5  4  0  0  0  0  0  0  0  0999 V2000
   -6.7581    4.9213    6.8704 C   0  0  0  0  0  0  0  0  0  0  0  0
   -7.8181    5.6309    7.6216 C   0  0  0  0  0  0  0  0  0  0  0  0
   -7.7486    6.8914    7.7184 O   0  0  0  0  0  0  0  0  0  0  0  0
   -8.8785    4.9340    8.2138 O   0  0  0  0  0  0  0  0  0  0  0  0
   -5.7991    5.7885    6.3929 F   0  0  0  0  0  0  0  0  0  0  0  0
  1  2  1  0
  2  3  2  0
  2  4  1  0
  1  5  1  0
M  END
$$$$
