
     RDKit          3D

  5  4  0  0  0  0  0  0  0  0999 V2000
  -12.4812    2.6430  -17.8387 C   0  0  0  0  0  0  0  0  0  0  0  0
  -11.6601    3.6434  -18.5574 C   0  0  0  0  0  0  0  0  0  0  0  0
  -12.0616    4.0557  -19.6852 O   0  0  0  0  0  0  0  0  0  0  0  0
  -10.4664    4.1303  -18.0108 O   0  0  0  0  0  0  0  0  0  0  0  0
  -13.1351    1.7960  -18.7074 F   0  0  0  0  0  0  0  0  0  0  0  0
  1  2  1  0
  2  3  2  0
  2  4  1  0
  1  5  1  0
M  END
$$$$
