
     RDKit          3D

  5  4  0  0  0  0  0  0  0  0999 V2000
    5.2652  -12.5230    7.7659 C   0  0  0  0  0  0  0  0  0  0  0  0
    6.3243  -13.5187    8.0459 C   0  0  0  0  0  0  0  0  0  0  0  0
    5.9984  -14.6034    8.6120 O   0  0  0  0  0  0  0  0  0  0  0  0
    7.6583  -13.2774    7.6953 O   0  0  0  0  0  0  0  0  0  0  0  0
    4.0109  -13.0098    8.0648 F   0  0  0  0  0  0  0  0  0  0  0  0
  1  2  1  0
  2  3  2  0
  2  4  1  0
  1  5  1  0
M  END
$$$$
