
     RDKit          3D

  5  4  0  0  0  0  0  0  0  0999 V2000
  -14.9073    4.3554  -12.5617 C   0  0  0  0  0  0  0  0  0  0  0  0
  -16.3360    4.5652  -12.8876 C   0  0  0  0  0  0  0  0  0  0  0  0
  -16.9819    3.6106  -13.4118 O   0  0  0  0  0  0  0  0  0  0  0  0
  -16.9687    5.7864  -12.6249 O   0  0  0  0  0  0  0  0  0  0  0  0
  -14.4925    3.0779  -12.8705 F   0  0  0  0  0  0  0  0  0  0  0  0
  1  2  1  0
  2  3  2  0
  2  4  1  0
  1  5  1  0
M  END
$$$$
