
     RDKit          3D

  5  4  0  0  0  0  0  0  0  0999 V2000
    1.4058   -9.5673   15.0317 C   0  0  0  0  0  0  0  0  0  0  0  0
    1.9225  -10.9342   15.2684 C   0  0  0  0  0  0  0  0  0  0  0  0
    1.5590  -11.8607   14.4857 O   0  0  0  0  0  0  0  0  0  0  0  0
    2.7948  -11.2068   16.3293 O   0  0  0  0  0  0  0  0  0  0  0  0
    2.2778   -8.6026   15.4884 F   0  0  0  0  0  0  0  0  0  0  0  0
  1  2  1  0
  2  3  2  0
  2  4  1  0
  1  5  1  0
M  END
$$$$
