
     RDKit          3D

  4  3  0  0  0  0  0  0  0  0999 V2000
    5.5147  -10.2791    3.1085 C   0  0  0  0  0  0  0  0  0  0  0  0
    5.9437   -9.0604    2.3225 C   0  0  0  0  0  0  0  0  0  0  0  0
    4.6223   -7.9398    1.9939 Cl  0  0  0  0  0  0  0  0  0  0  0  0
    6.7892  -11.5228    2.8475 Cl  0  0  0  0  0  0  0  0  0  0  0  0
  1  2  1  0
  2  3  1  0
  1  4  1  0
M  END
$$$$
