
     RDKit          3D

 32 35  0  0  0  0  0  0  0  0999 V2000
   11.4384  -35.3736   25.7813 C   0  0  0  0  0  0  0  0  0  0  0  0
   11.8123  -34.0980   25.0323 C   0  0  0  0  0  0  0  0  0  0  0  0
   12.7294  -33.2313   25.7935 C   0  0  0  0  0  0  0  0  0  0  0  0
   11.9670  -32.1340   26.4801 C   0  0  0  0  0  0  0  0  0  0  0  0
   12.8148  -31.2967   27.3891 C   0  0  0  0  0  0  0  0  0  0  0  0
   12.9387  -31.9921   28.7477 C   0  0  0  0  0  0  0  0  0  0  0  0
   13.7441  -31.1705   29.6808 C   0  0  0  0  0  0  0  0  0  0  0  0
   13.4493  -30.9953   30.8919 O   0  0  0  0  0  0  0  0  0  0  0  0
   14.9481  -30.5389   29.1291 C   0  0  0  0  0  0  0  0  0  0  0  0
   15.0659  -30.4066   27.8367 C   0  0  0  0  0  0  0  0  0  0  0  0
   14.0978  -30.8314   26.8228 C   0  0  0  0  0  0  0  0  0  0  0  0
   14.7474  -31.7581   25.8511 C   0  0  0  0  0  0  0  0  0  0  0  0
   16.0105  -31.7213   25.6486 O   0  0  0  0  0  0  0  0  0  0  0  0
   13.9299  -32.7405   25.1009 C   0  0  0  0  0  0  0  0  0  0  0  0
   14.2944  -33.0868   23.8797 C   0  0  0  0  0  0  0  0  0  0  0  0
   13.4607  -34.0198   23.1291 C   0  0  0  0  0  0  0  0  0  0  0  0
   12.3075  -34.5174   23.6990 C   0  0  0  0  0  0  0  0  0  0  0  0
   11.5789  -35.4228   22.9611 C   0  0  0  0  0  0  0  0  0  0  0  0
   12.0216  -35.7940   21.6946 C   0  0  0  0  0  0  0  0  0  0  0  0
   13.1775  -35.2863   21.1371 C   0  0  0  0  0  0  0  0  0  0  0  0
   13.9065  -34.3811   21.8756 C   0  0  0  0  0  0  0  0  0  0  0  0
   15.0745  -33.8658   21.3164 O   0  0  0  0  0  0  0  0  0  0  0  0
   15.4725  -32.5501   23.3354 O   0  0  0  0  0  0  0  0  0  0  0  0
   13.8067  -29.6742   26.0587 O   0  0  0  0  0  0  0  0  0  0  0  0
   16.2461  -29.7918   27.3728 O   0  0  0  0  0  0  0  0  0  0  0  0
   15.9808  -30.0781   30.0778 C   0  0  0  0  0  0  0  0  0  0  0  0
   15.9301  -30.3760   31.3006 O   0  0  0  0  0  0  0  0  0  0  0  0
   17.0527  -29.2763   29.5713 N   0  0  0  0  0  0  0  0  0  0  0  0
   11.5913  -32.0365   29.3082 N   0  0  0  0  0  0  0  0  0  0  0  0
   10.6738  -31.1905   28.5600 C   0  0  0  0  0  0  0  0  0  0  0  0
   11.5566  -31.5917   30.6753 C   0  0  0  0  0  0  0  0  0  0  0  0
   11.3563  -31.2881   25.5563 O   0  0  0  0  0  0  0  0  0  0  0  0
  1  2  1  0
  2  3  1  0
  3  4  1  0
  4  5  1  0
  5  6  1  0
  6  7  1  0
  7  8  2  0
  7  9  1  0
  9 10  2  0
 10 11  1  0
 11 12  1  0
 12 13  2  0
 12 14  1  0
 14 15  2  0
 15 16  1  0
 16 17  1  0
 17 18  2  0
 18 19  1  0
 19 20  2  0
 20 21  1  0
 21 22  1  0
 15 23  1  0
 11 24  1  0
 10 25  1  0
  9 26  1  0
 26 27  2  0
 26 28  1  0
  6 29  1  0
 29 30  1  0
 29 31  1  0
  4 32  1  0
 17  2  1  0
 14  3  1  0
 11  5  1  0
 21 16  2  0
M  END
$$$$
