
     RDKit          3D

 32 35  0  0  0  0  0  0  0  0999 V2000
   26.3529  -25.9721   15.6766 C   0  0  0  0  0  0  0  0  0  0  0  0
   24.9540  -25.4097   15.4429 C   0  0  0  0  0  0  0  0  0  0  0  0
   24.7781  -24.0554   15.9967 C   0  0  0  0  0  0  0  0  0  0  0  0
   24.0997  -24.1192   17.3356 C   0  0  0  0  0  0  0  0  0  0  0  0
   24.0149  -22.7915   18.0255 C   0  0  0  0  0  0  0  0  0  0  0  0
   25.3299  -22.5189   18.7610 C   0  0  0  0  0  0  0  0  0  0  0  0
   25.2640  -21.2268   19.4825 C   0  0  0  0  0  0  0  0  0  0  0  0
   25.7069  -21.0525   20.6477 O   0  0  0  0  0  0  0  0  0  0  0  0
   24.6404  -20.1065   18.7689 C   0  0  0  0  0  0  0  0  0  0  0  0
   23.8695  -20.3500   17.7453 C   0  0  0  0  0  0  0  0  0  0  0  0
   23.5353  -21.6664   17.1964 C   0  0  0  0  0  0  0  0  0  0  0  0
   23.9031  -21.7272   15.7520 C   0  0  0  0  0  0  0  0  0  0  0  0
   23.9694  -20.6637   15.0433 O   0  0  0  0  0  0  0  0  0  0  0  0
   24.1975  -23.0324   15.1148 C   0  0  0  0  0  0  0  0  0  0  0  0
   23.9034  -23.2103   13.8395 C   0  0  0  0  0  0  0  0  0  0  0  0
   24.1537  -24.5119   13.2295 C   0  0  0  0  0  0  0  0  0  0  0  0
   24.6831  -25.5333   13.9903 C   0  0  0  0  0  0  0  0  0  0  0  0
   24.9339  -26.7285   13.3549 C   0  0  0  0  0  0  0  0  0  0  0  0
   24.6495  -26.8604   11.9987 C   0  0  0  0  0  0  0  0  0  0  0  0
   24.1185  -25.8292   11.2507 C   0  0  0  0  0  0  0  0  0  0  0  0
   23.8683  -24.6335   11.8863 C   0  0  0  0  0  0  0  0  0  0  0  0
   23.3321  -23.5895   11.1348 O   0  0  0  0  0  0  0  0  0  0  0  0
   23.3588  -22.1450   13.1042 O   0  0  0  0  0  0  0  0  0  0  0  0
   22.1201  -21.7370   17.1983 O   0  0  0  0  0  0  0  0  0  0  0  0
   23.3023  -19.2300   17.1051 O   0  0  0  0  0  0  0  0  0  0  0  0
   24.9207  -18.7403   19.2522 C   0  0  0  0  0  0  0  0  0  0  0  0
   25.8149  -18.5172   20.1109 O   0  0  0  0  0  0  0  0  0  0  0  0
   24.1451  -17.6629   18.7171 N   0  0  0  0  0  0  0  0  0  0  0  0
   25.4446  -23.5500   19.7884 N   0  0  0  0  0  0  0  0  0  0  0  0
   25.1904  -24.8756   19.2448 C   0  0  0  0  0  0  0  0  0  0  0  0
   24.5134  -23.3495   20.8658 C   0  0  0  0  0  0  0  0  0  0  0  0
   22.8090  -24.6329   17.2245 O   0  0  0  0  0  0  0  0  0  0  0  0
  1  2  1  0
  2  3  1  0
  3  4  1  0
  4  5  1  0
  5  6  1  0
  6  7  1  0
  7  8  2  0
  7  9  1  0
  9 10  2  0
 10 11  1  0
 11 12  1  0
 12 13  2  0
 12 14  1  0
 14 15  2  0
 15 16  1  0
 16 17  1  0
 17 18  2  0
 18 19  1  0
 19 20  2  0
 20 21  1  0
 21 22  1  0
 15 23  1  0
 11 24  1  0
 10 25  1  0
  9 26  1  0
 26 27  2  0
 26 28  1  0
  6 29  1  0
 29 30  1  0
 29 31  1  0
  4 32  1  0
 17  2  1  0
 14  3  1  0
 11  5  1  0
 21 16  2  0
M  END
$$$$
