
     RDKit          3D

 32 35  0  0  0  0  0  0  0  0999 V2000
    5.2138  -16.2018    1.8884 C   0  0  0  0  0  0  0  0  0  0  0  0
    6.5833  -15.5458    1.7394 C   0  0  0  0  0  0  0  0  0  0  0  0
    6.5430  -14.3024    0.9494 C   0  0  0  0  0  0  0  0  0  0  0  0
    6.9544  -14.5686   -0.4707 C   0  0  0  0  0  0  0  0  0  0  0  0
    6.8011  -13.3791   -1.3694 C   0  0  0  0  0  0  0  0  0  0  0  0
    5.3521  -13.2976   -1.8575 C   0  0  0  0  0  0  0  0  0  0  0  0
    5.1769  -12.1495   -2.7770 C   0  0  0  0  0  0  0  0  0  0  0  0
    4.5061  -12.2009   -3.8409 O   0  0  0  0  0  0  0  0  0  0  0  0
    5.8364  -10.8954   -2.3959 C   0  0  0  0  0  0  0  0  0  0  0  0
    6.8063  -10.9222   -1.5240 C   0  0  0  0  0  0  0  0  0  0  0  0
    7.3416  -12.1065   -0.8483 C   0  0  0  0  0  0  0  0  0  0  0  0
    7.2641  -11.9308    0.6310 C   0  0  0  0  0  0  0  0  0  0  0  0
    7.2522  -10.7639    1.1565 O   0  0  0  0  0  0  0  0  0  0  0  0
    7.2005  -13.1165    1.5176 C   0  0  0  0  0  0  0  0  0  0  0  0
    7.7472  -13.0560    2.7185 C   0  0  0  0  0  0  0  0  0  0  0  0
    7.7213  -14.2411    3.5692 C   0  0  0  0  0  0  0  0  0  0  0  0
    7.1370  -15.4020    3.1074 C   0  0  0  0  0  0  0  0  0  0  0  0
    7.1071  -16.4780    3.9656 C   0  0  0  0  0  0  0  0  0  0  0  0
    7.6563  -16.3586    5.2391 C   0  0  0  0  0  0  0  0  0  0  0  0
    8.2388  -15.1903    5.6867 C   0  0  0  0  0  0  0  0  0  0  0  0
    8.2680  -14.1138    4.8283 C   0  0  0  0  0  0  0  0  0  0  0  0
    8.8552  -12.9320    5.2762 O   0  0  0  0  0  0  0  0  0  0  0  0
    8.3378  -11.8557    3.1455 O   0  0  0  0  0  0  0  0  0  0  0  0
    8.7312  -12.1135   -1.1254 O   0  0  0  0  0  0  0  0  0  0  0  0
    7.3966   -9.6836   -1.2022 O   0  0  0  0  0  0  0  0  0  0  0  0
    5.3626   -9.6482   -3.0272 C   0  0  0  0  0  0  0  0  0  0  0  0
    4.5046   -9.6629   -3.9493 O   0  0  0  0  0  0  0  0  0  0  0  0
    5.9059   -8.4081   -2.5629 N   0  0  0  0  0  0  0  0  0  0  0  0
    5.1231  -14.4961   -2.6593 N   0  0  0  0  0  0  0  0  0  0  0  0
    5.9395  -14.4965   -3.8638 C   0  0  0  0  0  0  0  0  0  0  0  0
    3.7525  -14.6161   -3.0778 C   0  0  0  0  0  0  0  0  0  0  0  0
    8.2786  -14.9972   -0.5417 O   0  0  0  0  0  0  0  0  0  0  0  0
  1  2  1  0
  2  3  1  0
  3  4  1  0
  4  5  1  0
  5  6  1  0
  6  7  1  0
  7  8  2  0
  7  9  1  0
  9 10  2  0
 10 11  1  0
 11 12  1  0
 12 13  2  0
 12 14  1  0
 14 15  2  0
 15 16  1  0
 16 17  1  0
 17 18  2  0
 18 19  1  0
 19 20  2  0
 20 21  1  0
 21 22  1  0
 15 23  1  0
 11 24  1  0
 10 25  1  0
  9 26  1  0
 26 27  2  0
 26 28  1  0
  6 29  1  0
 29 30  1  0
 29 31  1  0
  4 32  1  0
 17  2  1  0
 14  3  1  0
 11  5  1  0
 21 16  2  0
M  END
$$$$
