
     RDKit          3D

 32 35  0  0  0  0  0  0  0  0999 V2000
   24.1604  -62.6612   34.7548 C   0  0  0  0  0  0  0  0  0  0  0  0
   24.7724  -63.9360   35.3277 C   0  0  0  0  0  0  0  0  0  0  0  0
   23.7919  -65.0250   35.4846 C   0  0  0  0  0  0  0  0  0  0  0  0
   23.3040  -65.0924   36.9038 C   0  0  0  0  0  0  0  0  0  0  0  0
   22.1986  -66.0835   37.1084 C   0  0  0  0  0  0  0  0  0  0  0  0
   20.8629  -65.4357   36.7330 C   0  0  0  0  0  0  0  0  0  0  0  0
   19.7451  -66.3814   36.9578 C   0  0  0  0  0  0  0  0  0  0  0  0
   18.6450  -66.0544   37.4749 O   0  0  0  0  0  0  0  0  0  0  0  0
   19.9661  -67.7712   36.5425 C   0  0  0  0  0  0  0  0  0  0  0  0
   21.1849  -68.1965   36.3551 C   0  0  0  0  0  0  0  0  0  0  0  0
   22.4162  -67.4196   36.5164 C   0  0  0  0  0  0  0  0  0  0  0  0
   23.2060  -67.4433   35.2512 C   0  0  0  0  0  0  0  0  0  0  0  0
   23.0829  -68.4044   34.4151 O   0  0  0  0  0  0  0  0  0  0  0  0
   24.1522  -66.3445   34.9454 C   0  0  0  0  0  0  0  0  0  0  0  0
   25.2470  -66.6073   34.2549 C   0  0  0  0  0  0  0  0  0  0  0  0
   26.1970  -65.5305   33.9960 C   0  0  0  0  0  0  0  0  0  0  0  0
   25.9435  -64.2639   34.4795 C   0  0  0  0  0  0  0  0  0  0  0  0
   26.8544  -63.2779   34.1739 C   0  0  0  0  0  0  0  0  0  0  0  0
   27.9735  -63.5881   33.4064 C   0  0  0  0  0  0  0  0  0  0  0  0
   28.2142  -64.8611   32.9305 C   0  0  0  0  0  0  0  0  0  0  0  0
   27.3026  -65.8470   33.2358 C   0  0  0  0  0  0  0  0  0  0  0  0
   27.5417  -67.1340   32.7574 O   0  0  0  0  0  0  0  0  0  0  0  0
   25.4687  -67.9130   33.7879 O   0  0  0  0  0  0  0  0  0  0  0  0
   23.2122  -68.1453   37.4370 O   0  0  0  0  0  0  0  0  0  0  0  0
   21.3273  -69.5409   35.9570 O   0  0  0  0  0  0  0  0  0  0  0  0
   18.7811  -68.6310   36.3547 C   0  0  0  0  0  0  0  0  0  0  0  0
   17.6287  -68.1413   36.2170 O   0  0  0  0  0  0  0  0  0  0  0  0
   18.9730  -70.0491   36.3324 N   0  0  0  0  0  0  0  0  0  0  0  0
   20.6610  -64.3397   37.6763 N   0  0  0  0  0  0  0  0  0  0  0  0
   20.5370  -64.8269   39.0419 C   0  0  0  0  0  0  0  0  0  0  0  0
   19.4708  -63.5861   37.3870 C   0  0  0  0  0  0  0  0  0  0  0  0
   24.3396  -65.4116   37.7800 O   0  0  0  0  0  0  0  0  0  0  0  0
  1  2  1  0
  2  3  1  0
  3  4  1  0
  4  5  1  0
  5  6  1  0
  6  7  1  0
  7  8  2  0
  7  9  1  0
  9 10  2  0
 10 11  1  0
 11 12  1  0
 12 13  2  0
 12 14  1  0
 14 15  2  0
 15 16  1  0
 16 17  1  0
 17 18  2  0
 18 19  1  0
 19 20  2  0
 20 21  1  0
 21 22  1  0
 15 23  1  0
 11 24  1  0
 10 25  1  0
  9 26  1  0
 26 27  2  0
 26 28  1  0
  6 29  1  0
 29 30  1  0
 29 31  1  0
  4 32  1  0
 17  2  1  0
 14  3  1  0
 11  5  1  0
 21 16  2  0
M  END
$$$$
