
     RDKit          3D

 32 35  0  0  0  0  0  0  0  0999 V2000
   36.6826  -62.7581   38.8633 C   0  0  0  0  0  0  0  0  0  0  0  0
   37.3342  -61.8346   39.8882 C   0  0  0  0  0  0  0  0  0  0  0  0
   38.0753  -62.5648   40.9319 C   0  0  0  0  0  0  0  0  0  0  0  0
   37.2389  -62.7012   42.1723 C   0  0  0  0  0  0  0  0  0  0  0  0
   37.8717  -63.5565   43.2278 C   0  0  0  0  0  0  0  0  0  0  0  0
   37.5780  -65.0292   42.9285 C   0  0  0  0  0  0  0  0  0  0  0  0
   38.1625  -65.8992   43.9752 C   0  0  0  0  0  0  0  0  0  0  0  0
   37.5688  -66.8916   44.4723 O   0  0  0  0  0  0  0  0  0  0  0  0
   39.5126  -65.5564   44.4366 C   0  0  0  0  0  0  0  0  0  0  0  0
   39.9801  -64.3594   44.2128 C   0  0  0  0  0  0  0  0  0  0  0  0
   39.2895  -63.2657   43.5253 C   0  0  0  0  0  0  0  0  0  0  0  0
   40.1060  -62.7897   42.3713 C   0  0  0  0  0  0  0  0  0  0  0  0
   41.3766  -62.9421   42.3553 O   0  0  0  0  0  0  0  0  0  0  0  0
   39.4493  -62.1277   41.2195 C   0  0  0  0  0  0  0  0  0  0  0  0
   40.1004  -61.1901   40.5552 C   0  0  0  0  0  0  0  0  0  0  0  0
   39.4319  -60.5102   39.4508 C   0  0  0  0  0  0  0  0  0  0  0  0
   38.1355  -60.8488   39.1235 C   0  0  0  0  0  0  0  0  0  0  0  0
   37.5666  -60.2023   38.0494 C   0  0  0  0  0  0  0  0  0  0  0  0
   38.3030  -59.2511   37.3491 C   0  0  0  0  0  0  0  0  0  0  0  0
   39.5994  -58.9221   37.6895 C   0  0  0  0  0  0  0  0  0  0  0  0
   40.1685  -59.5692   38.7635 C   0  0  0  0  0  0  0  0  0  0  0  0
   41.4775  -59.2400   39.1108 O   0  0  0  0  0  0  0  0  0  0  0  0
   41.4167  -60.8719   40.9271 O   0  0  0  0  0  0  0  0  0  0  0  0
   39.2975  -62.1754   44.4303 O   0  0  0  0  0  0  0  0  0  0  0  0
   41.2827  -64.0956   44.6817 O   0  0  0  0  0  0  0  0  0  0  0  0
   40.2852  -66.5982   45.1410 C   0  0  0  0  0  0  0  0  0  0  0  0
   39.7278  -67.6256   45.6105 O   0  0  0  0  0  0  0  0  0  0  0  0
   41.6976  -66.4127   45.2802 N   0  0  0  0  0  0  0  0  0  0  0  0
   36.1303  -65.1866   43.0341 N   0  0  0  0  0  0  0  0  0  0  0  0
   35.7014  -65.2605   44.4227 C   0  0  0  0  0  0  0  0  0  0  0  0
   35.6648  -66.3819   42.3841 C   0  0  0  0  0  0  0  0  0  0  0  0
   36.9597  -61.4565   42.7334 O   0  0  0  0  0  0  0  0  0  0  0  0
  1  2  1  0
  2  3  1  0
  3  4  1  0
  4  5  1  0
  5  6  1  0
  6  7  1  0
  7  8  2  0
  7  9  1  0
  9 10  2  0
 10 11  1  0
 11 12  1  0
 12 13  2  0
 12 14  1  0
 14 15  2  0
 15 16  1  0
 16 17  1  0
 17 18  2  0
 18 19  1  0
 19 20  2  0
 20 21  1  0
 21 22  1  0
 15 23  1  0
 11 24  1  0
 10 25  1  0
  9 26  1  0
 26 27  2  0
 26 28  1  0
  6 29  1  0
 29 30  1  0
 29 31  1  0
  4 32  1  0
 17  2  1  0
 14  3  1  0
 11  5  1  0
 21 16  2  0
M  END
$$$$
