
     RDKit          3D

 25 24  0  0  0  0  0  0  0  0999 V2000
    8.2193    6.5446  -13.0040 C   0  0  0  0  0  0  0  0  0  0  0  0
    8.9018    7.0882  -13.9450 O   0  0  0  0  0  0  0  0  0  0  0  0
    8.3054    5.1201  -12.6656 C   0  0  0  0  0  0  0  0  0  0  0  0
    9.1586    4.7079  -11.5457 C   0  0  0  0  0  0  0  0  0  0  0  0
    9.3251    3.3273  -11.1175 C   0  0  0  0  0  0  0  0  0  0  0  0
   10.3530    2.9970  -10.0615 C   0  0  0  0  0  0  0  0  0  0  0  0
   10.5483    1.4909  -10.1276 C   0  0  0  0  0  0  0  0  0  0  0  0
   11.5935    0.9072   -9.2763 C   0  0  0  0  0  0  0  0  0  0  0  0
   12.1506   -0.4305   -9.5812 C   0  0  0  0  0  0  0  0  0  0  0  0
   11.2543   -1.4671   -9.6395 F   0  0  0  0  0  0  0  0  0  0  0  0
   12.9267   -0.4373  -10.7320 F   0  0  0  0  0  0  0  0  0  0  0  0
   12.9942   -0.7572   -8.5001 F   0  0  0  0  0  0  0  0  0  0  0  0
   11.1980    0.8567   -7.9206 F   0  0  0  0  0  0  0  0  0  0  0  0
   12.7084    1.7805   -9.2778 F   0  0  0  0  0  0  0  0  0  0  0  0
    9.3066    0.9042   -9.9614 F   0  0  0  0  0  0  0  0  0  0  0  0
   10.9428    1.2497  -11.4582 F   0  0  0  0  0  0  0  0  0  0  0  0
    9.8545    3.2844   -8.7944 F   0  0  0  0  0  0  0  0  0  0  0  0
   11.4903    3.7057  -10.3412 F   0  0  0  0  0  0  0  0  0  0  0  0
    9.6911    2.5272  -12.2263 F   0  0  0  0  0  0  0  0  0  0  0  0
    8.1410    2.7327  -10.6833 F   0  0  0  0  0  0  0  0  0  0  0  0
   10.4649    5.1978  -11.8414 F   0  0  0  0  0  0  0  0  0  0  0  0
    8.8102    5.4606  -10.3854 F   0  0  0  0  0  0  0  0  0  0  0  0
    8.6374    4.4147  -13.8500 F   0  0  0  0  0  0  0  0  0  0  0  0
    6.9754    4.7069  -12.4476 F   0  0  0  0  0  0  0  0  0  0  0  0
    7.3707    7.4243  -12.3098 O   0  0  0  0  0  0  0  0  0  0  0  0
  1  2  2  0
  1  3  1  0
  3  4  1  0
  4  5  1  0
  5  6  1  0
  6  7  1  0
  7  8  1  0
  8  9  1  0
  9 10  1  0
  9 11  1  0
  9 12  1  0
  8 13  1  0
  8 14  1  0
  7 15  1  0
  7 16  1  0
  6 17  1  0
  6 18  1  0
  5 19  1  0
  5 20  1  0
  4 21  1  0
  4 22  1  0
  3 23  1  0
  3 24  1  0
  1 25  1  0
M  END
$$$$
