
     RDKit          3D

 25 24  0  0  0  0  0  0  0  0999 V2000
    6.1132   -0.7793  -11.8819 C   0  0  0  0  0  0  0  0  0  0  0  0
    6.4410   -1.9817  -11.5763 O   0  0  0  0  0  0  0  0  0  0  0  0
    5.2460    0.0568  -11.0453 C   0  0  0  0  0  0  0  0  0  0  0  0
    5.1712    1.4963  -11.3186 C   0  0  0  0  0  0  0  0  0  0  0  0
    4.3396    2.4231  -10.5661 C   0  0  0  0  0  0  0  0  0  0  0  0
    4.2953    3.8771  -10.9718 C   0  0  0  0  0  0  0  0  0  0  0  0
    3.3130    4.5443  -10.0226 C   0  0  0  0  0  0  0  0  0  0  0  0
    2.8336    5.8861  -10.3800 C   0  0  0  0  0  0  0  0  0  0  0  0
    2.0462    6.6846   -9.4130 C   0  0  0  0  0  0  0  0  0  0  0  0
    2.6333    6.9243   -8.1967 F   0  0  0  0  0  0  0  0  0  0  0  0
    1.6031    7.8868   -9.9471 F   0  0  0  0  0  0  0  0  0  0  0  0
    0.9072    5.9128   -9.1061 F   0  0  0  0  0  0  0  0  0  0  0  0
    2.0742    5.8713  -11.5716 F   0  0  0  0  0  0  0  0  0  0  0  0
    3.9555    6.6904  -10.6960 F   0  0  0  0  0  0  0  0  0  0  0  0
    2.2958    3.6400   -9.7759 F   0  0  0  0  0  0  0  0  0  0  0  0
    4.0347    4.6900   -8.8217 F   0  0  0  0  0  0  0  0  0  0  0  0
    3.7691    4.0060  -12.2537 F   0  0  0  0  0  0  0  0  0  0  0  0
    5.5652    4.3807  -10.8826 F   0  0  0  0  0  0  0  0  0  0  0  0
    4.7599    2.4483   -9.2147 F   0  0  0  0  0  0  0  0  0  0  0  0
    3.0075    2.0230  -10.4692 F   0  0  0  0  0  0  0  0  0  0  0  0
    6.5069    1.9871  -11.2254 F   0  0  0  0  0  0  0  0  0  0  0  0
    4.8713    1.6994  -12.6981 F   0  0  0  0  0  0  0  0  0  0  0  0
    5.5841   -0.1911   -9.6907 F   0  0  0  0  0  0  0  0  0  0  0  0
    3.9659   -0.5269  -11.1341 F   0  0  0  0  0  0  0  0  0  0  0  0
    6.6525   -0.3129  -13.0933 O   0  0  0  0  0  0  0  0  0  0  0  0
  1  2  2  0
  1  3  1  0
  3  4  1  0
  4  5  1  0
  5  6  1  0
  6  7  1  0
  7  8  1  0
  8  9  1  0
  9 10  1  0
  9 11  1  0
  9 12  1  0
  8 13  1  0
  8 14  1  0
  7 15  1  0
  7 16  1  0
  6 17  1  0
  6 18  1  0
  5 19  1  0
  5 20  1  0
  4 21  1  0
  4 22  1  0
  3 23  1  0
  3 24  1  0
  1 25  1  0
M  END
$$$$
