
     RDKit          3D

 25 24  0  0  0  0  0  0  0  0999 V2000
    7.6122   -0.7996  -12.6714 C   0  0  0  0  0  0  0  0  0  0  0  0
    7.5296   -1.2390  -13.8743 O   0  0  0  0  0  0  0  0  0  0  0  0
    6.4520   -0.6506  -11.7867 C   0  0  0  0  0  0  0  0  0  0  0  0
    6.1001    0.6873  -11.2983 C   0  0  0  0  0  0  0  0  0  0  0  0
    4.9049    0.9795  -10.5218 C   0  0  0  0  0  0  0  0  0  0  0  0
    4.7796    2.3146   -9.8272 C   0  0  0  0  0  0  0  0  0  0  0  0
    3.3942    2.3299   -9.2016 C   0  0  0  0  0  0  0  0  0  0  0  0
    3.0404    3.4892   -8.3718 C   0  0  0  0  0  0  0  0  0  0  0  0
    1.6937    3.5960   -7.7655 C   0  0  0  0  0  0  0  0  0  0  0  0
    1.6480    3.8591   -6.4201 F   0  0  0  0  0  0  0  0  0  0  0  0
    0.8770    4.4993   -8.4317 F   0  0  0  0  0  0  0  0  0  0  0  0
    1.1064    2.3209   -7.8932 F   0  0  0  0  0  0  0  0  0  0  0  0
    3.2490    4.7075   -9.0567 F   0  0  0  0  0  0  0  0  0  0  0  0
    3.9420    3.5481   -7.2813 F   0  0  0  0  0  0  0  0  0  0  0  0
    2.4819    2.0703  -10.2086 F   0  0  0  0  0  0  0  0  0  0  0  0
    3.3884    1.2134   -8.3428 F   0  0  0  0  0  0  0  0  0  0  0  0
    4.8141    3.3492  -10.7574 F   0  0  0  0  0  0  0  0  0  0  0  0
    5.7914    2.4116   -8.9102 F   0  0  0  0  0  0  0  0  0  0  0  0
    4.7700    0.0287   -9.4820 F   0  0  0  0  0  0  0  0  0  0  0  0
    3.7212    0.8219  -11.2416 F   0  0  0  0  0  0  0  0  0  0  0  0
    7.2071    1.1265  -10.5137 F   0  0  0  0  0  0  0  0  0  0  0  0
    6.1195    1.6073  -12.3880 F   0  0  0  0  0  0  0  0  0  0  0  0
    6.6080   -1.5638  -10.7132 F   0  0  0  0  0  0  0  0  0  0  0  0
    5.3699   -1.2163  -12.4911 F   0  0  0  0  0  0  0  0  0  0  0  0
    8.9129   -0.4665  -12.2554 O   0  0  0  0  0  0  0  0  0  0  0  0
  1  2  2  0
  1  3  1  0
  3  4  1  0
  4  5  1  0
  5  6  1  0
  6  7  1  0
  7  8  1  0
  8  9  1  0
  9 10  1  0
  9 11  1  0
  9 12  1  0
  8 13  1  0
  8 14  1  0
  7 15  1  0
  7 16  1  0
  6 17  1  0
  6 18  1  0
  5 19  1  0
  5 20  1  0
  4 21  1  0
  4 22  1  0
  3 23  1  0
  3 24  1  0
  1 25  1  0
M  END
$$$$
