
     RDKit          3D

 25 24  0  0  0  0  0  0  0  0999 V2000
   12.4756    3.5729   -9.9639 C   0  0  0  0  0  0  0  0  0  0  0  0
   13.4119    3.9067   -9.1524 O   0  0  0  0  0  0  0  0  0  0  0  0
   11.3368    2.7329   -9.5784 C   0  0  0  0  0  0  0  0  0  0  0  0
   10.0163    3.3542   -9.4284 C   0  0  0  0  0  0  0  0  0  0  0  0
    8.7815    2.6044   -9.2549 C   0  0  0  0  0  0  0  0  0  0  0  0
    7.4899    3.3483   -9.0121 C   0  0  0  0  0  0  0  0  0  0  0  0
    6.3823    2.3171   -9.1560 C   0  0  0  0  0  0  0  0  0  0  0  0
    5.0274    2.8146   -9.4294 C   0  0  0  0  0  0  0  0  0  0  0  0
    3.8829    1.8775   -9.4985 C   0  0  0  0  0  0  0  0  0  0  0  0
    3.7140    1.0387   -8.4265 F   0  0  0  0  0  0  0  0  0  0  0  0
    2.6813    2.5192   -9.7655 F   0  0  0  0  0  0  0  0  0  0  0  0
    4.1508    1.0141  -10.5801 F   0  0  0  0  0  0  0  0  0  0  0  0
    4.9768    3.5687  -10.6233 F   0  0  0  0  0  0  0  0  0  0  0  0
    4.6823    3.7450   -8.4190 F   0  0  0  0  0  0  0  0  0  0  0  0
    6.8166    1.3661  -10.0618 F   0  0  0  0  0  0  0  0  0  0  0  0
    6.3256    1.6900   -7.8959 F   0  0  0  0  0  0  0  0  0  0  0  0
    7.2861    4.3011  -10.0059 F   0  0  0  0  0  0  0  0  0  0  0  0
    7.5521    3.9092   -7.7649 F   0  0  0  0  0  0  0  0  0  0  0  0
    8.9035    1.7398   -8.1408 F   0  0  0  0  0  0  0  0  0  0  0  0
    8.5129    1.7243  -10.3025 F   0  0  0  0  0  0  0  0  0  0  0  0
   10.1158    4.2305   -8.3077 F   0  0  0  0  0  0  0  0  0  0  0  0
    9.7985    4.2648  -10.5043 F   0  0  0  0  0  0  0  0  0  0  0  0
   11.7035    2.0188   -8.4095 F   0  0  0  0  0  0  0  0  0  0  0  0
   11.2887    1.7041  -10.5411 F   0  0  0  0  0  0  0  0  0  0  0  0
   12.6206    4.0770  -11.2680 O   0  0  0  0  0  0  0  0  0  0  0  0
  1  2  2  0
  1  3  1  0
  3  4  1  0
  4  5  1  0
  5  6  1  0
  6  7  1  0
  7  8  1  0
  8  9  1  0
  9 10  1  0
  9 11  1  0
  9 12  1  0
  8 13  1  0
  8 14  1  0
  7 15  1  0
  7 16  1  0
  6 17  1  0
  6 18  1  0
  5 19  1  0
  5 20  1  0
  4 21  1  0
  4 22  1  0
  3 23  1  0
  3 24  1  0
  1 25  1  0
M  END
$$$$
