
     RDKit          3D

 25 24  0  0  0  0  0  0  0  0999 V2000
    5.6458   -0.3332  -11.0014 C   0  0  0  0  0  0  0  0  0  0  0  0
    4.6879   -1.1424  -10.7285 O   0  0  0  0  0  0  0  0  0  0  0  0
    5.4398    1.0882  -11.2982 C   0  0  0  0  0  0  0  0  0  0  0  0
    4.5973    1.8852  -10.3997 C   0  0  0  0  0  0  0  0  0  0  0  0
    4.3027    3.2957  -10.6018 C   0  0  0  0  0  0  0  0  0  0  0  0
    3.3558    3.9982   -9.6581 C   0  0  0  0  0  0  0  0  0  0  0  0
    3.2781    5.4374  -10.1415 C   0  0  0  0  0  0  0  0  0  0  0  0
    2.3808    6.3463   -9.4159 C   0  0  0  0  0  0  0  0  0  0  0  0
    2.0207    7.6630   -9.9898 C   0  0  0  0  0  0  0  0  0  0  0  0
    2.9751    8.6451   -9.9125 F   0  0  0  0  0  0  0  0  0  0  0  0
    1.5705    7.5708  -11.2996 F   0  0  0  0  0  0  0  0  0  0  0  0
    0.9529    8.1499   -9.2088 F   0  0  0  0  0  0  0  0  0  0  0  0
    2.8495    6.6137   -8.1099 F   0  0  0  0  0  0  0  0  0  0  0  0
    1.1465    5.6832   -9.2102 F   0  0  0  0  0  0  0  0  0  0  0  0
    4.5742    5.9085  -10.2505 F   0  0  0  0  0  0  0  0  0  0  0  0
    2.7650    5.3373  -11.4496 F   0  0  0  0  0  0  0  0  0  0  0  0
    3.8895    4.0320   -8.3733 F   0  0  0  0  0  0  0  0  0  0  0  0
    2.1536    3.3448   -9.7001 F   0  0  0  0  0  0  0  0  0  0  0  0
    3.7260    3.4817  -11.8810 F   0  0  0  0  0  0  0  0  0  0  0  0
    5.4405    4.0998  -10.6545 F   0  0  0  0  0  0  0  0  0  0  0  0
    3.3394    1.2160  -10.3388 F   0  0  0  0  0  0  0  0  0  0  0  0
    5.0749    1.7508   -9.0626 F   0  0  0  0  0  0  0  0  0  0  0  0
    4.9956    1.1886  -12.6411 F   0  0  0  0  0  0  0  0  0  0  0  0
    6.7327    1.6439  -11.3802 F   0  0  0  0  0  0  0  0  0  0  0  0
    6.9257   -0.9142  -10.9954 O   0  0  0  0  0  0  0  0  0  0  0  0
  1  2  2  0
  1  3  1  0
  3  4  1  0
  4  5  1  0
  5  6  1  0
  6  7  1  0
  7  8  1  0
  8  9  1  0
  9 10  1  0
  9 11  1  0
  9 12  1  0
  8 13  1  0
  8 14  1  0
  7 15  1  0
  7 16  1  0
  6 17  1  0
  6 18  1  0
  5 19  1  0
  5 20  1  0
  4 21  1  0
  4 22  1  0
  3 23  1  0
  3 24  1  0
  1 25  1  0
M  END
$$$$
