
     RDKit          3D

 25 24  0  0  0  0  0  0  0  0999 V2000
   10.1959    3.8414  -10.0737 C   0  0  0  0  0  0  0  0  0  0  0  0
   10.9983    2.8425  -10.1457 O   0  0  0  0  0  0  0  0  0  0  0  0
    9.0433    3.8853   -9.1678 C   0  0  0  0  0  0  0  0  0  0  0  0
    7.7155    3.5492   -9.6934 C   0  0  0  0  0  0  0  0  0  0  0  0
    6.4966    3.5803   -8.8994 C   0  0  0  0  0  0  0  0  0  0  0  0
    5.1840    3.1969   -9.5402 C   0  0  0  0  0  0  0  0  0  0  0  0
    4.1138    3.4805   -8.4985 C   0  0  0  0  0  0  0  0  0  0  0  0
    2.7283    3.1334   -8.8415 C   0  0  0  0  0  0  0  0  0  0  0  0
    1.5982    3.7130   -8.0801 C   0  0  0  0  0  0  0  0  0  0  0  0
    0.3556    3.1934   -8.3399 F   0  0  0  0  0  0  0  0  0  0  0  0
    1.8158    3.7035   -6.7092 F   0  0  0  0  0  0  0  0  0  0  0  0
    1.5060    5.0603   -8.4844 F   0  0  0  0  0  0  0  0  0  0  0  0
    2.5198    1.7358   -8.8305 F   0  0  0  0  0  0  0  0  0  0  0  0
    2.4961    3.5060  -10.1879 F   0  0  0  0  0  0  0  0  0  0  0  0
    4.5429    2.9314   -7.3035 F   0  0  0  0  0  0  0  0  0  0  0  0
    4.1429    4.8802   -8.3425 F   0  0  0  0  0  0  0  0  0  0  0  0
    5.1499    1.8287   -9.7921 F   0  0  0  0  0  0  0  0  0  0  0  0
    5.0391    3.9356  -10.6836 F   0  0  0  0  0  0  0  0  0  0  0  0
    6.2801    4.8919   -8.4131 F   0  0  0  0  0  0  0  0  0  0  0  0
    6.5747    2.8250   -7.7301 F   0  0  0  0  0  0  0  0  0  0  0  0
    7.4961    4.4194  -10.8017 F   0  0  0  0  0  0  0  0  0  0  0  0
    7.7667    2.2694  -10.3208 F   0  0  0  0  0  0  0  0  0  0  0  0
    9.0387    5.1550   -8.5366 F   0  0  0  0  0  0  0  0  0  0  0  0
    9.3775    3.0323   -8.0964 F   0  0  0  0  0  0  0  0  0  0  0  0
   10.5046    4.9067  -10.9372 O   0  0  0  0  0  0  0  0  0  0  0  0
  1  2  2  0
  1  3  1  0
  3  4  1  0
  4  5  1  0
  5  6  1  0
  6  7  1  0
  7  8  1  0
  8  9  1  0
  9 10  1  0
  9 11  1  0
  9 12  1  0
  8 13  1  0
  8 14  1  0
  7 15  1  0
  7 16  1  0
  6 17  1  0
  6 18  1  0
  5 19  1  0
  5 20  1  0
  4 21  1  0
  4 22  1  0
  3 23  1  0
  3 24  1  0
  1 25  1  0
M  END
$$$$
