
     RDKit          3D

 25 24  0  0  0  0  0  0  0  0999 V2000
   10.3574    3.1706  -10.7038 C   0  0  0  0  0  0  0  0  0  0  0  0
   10.1962    2.2026  -11.5307 O   0  0  0  0  0  0  0  0  0  0  0  0
   10.0854    3.0566   -9.2671 C   0  0  0  0  0  0  0  0  0  0  0  0
    8.8539    3.6457   -8.7298 C   0  0  0  0  0  0  0  0  0  0  0  0
    7.5219    3.3352   -9.2262 C   0  0  0  0  0  0  0  0  0  0  0  0
    6.3137    3.8416   -8.4748 C   0  0  0  0  0  0  0  0  0  0  0  0
    5.1184    3.5608   -9.3711 C   0  0  0  0  0  0  0  0  0  0  0  0
    3.8759    4.2920   -9.0891 C   0  0  0  0  0  0  0  0  0  0  0  0
    2.6192    3.9343   -9.7858 C   0  0  0  0  0  0  0  0  0  0  0  0
    2.5993    4.1203  -11.1446 F   0  0  0  0  0  0  0  0  0  0  0  0
    2.1971    2.6434   -9.4989 F   0  0  0  0  0  0  0  0  0  0  0  0
    1.6368    4.8191   -9.2966 F   0  0  0  0  0  0  0  0  0  0  0  0
    4.0331    5.6840   -9.2746 F   0  0  0  0  0  0  0  0  0  0  0  0
    3.5842    4.1588   -7.7097 F   0  0  0  0  0  0  0  0  0  0  0  0
    5.5459    3.6796  -10.6813 F   0  0  0  0  0  0  0  0  0  0  0  0
    4.8329    2.1987   -9.1530 F   0  0  0  0  0  0  0  0  0  0  0  0
    6.3852    5.2225   -8.3178 F   0  0  0  0  0  0  0  0  0  0  0  0
    6.2577    3.1881   -7.2731 F   0  0  0  0  0  0  0  0  0  0  0  0
    7.3463    1.9314   -9.2684 F   0  0  0  0  0  0  0  0  0  0  0  0
    7.3203    3.7131  -10.5531 F   0  0  0  0  0  0  0  0  0  0  0  0
    8.8449    3.3427   -7.3363 F   0  0  0  0  0  0  0  0  0  0  0  0
    8.9727    5.0670   -8.7281 F   0  0  0  0  0  0  0  0  0  0  0  0
   11.2267    3.5321   -8.5729 F   0  0  0  0  0  0  0  0  0  0  0  0
   10.1321    1.6759   -8.9865 F   0  0  0  0  0  0  0  0  0  0  0  0
   10.8202    4.3658  -11.2809 O   0  0  0  0  0  0  0  0  0  0  0  0
  1  2  2  0
  1  3  1  0
  3  4  1  0
  4  5  1  0
  5  6  1  0
  6  7  1  0
  7  8  1  0
  8  9  1  0
  9 10  1  0
  9 11  1  0
  9 12  1  0
  8 13  1  0
  8 14  1  0
  7 15  1  0
  7 16  1  0
  6 17  1  0
  6 18  1  0
  5 19  1  0
  5 20  1  0
  4 21  1  0
  4 22  1  0
  3 23  1  0
  3 24  1  0
  1 25  1  0
M  END
$$$$
