
     RDKit          3D

 25 24  0  0  0  0  0  0  0  0999 V2000
  -11.2691   -2.3885    3.1354 C   0  0  0  0  0  0  0  0  0  0  0  0
  -11.1076   -3.5404    2.5969 O   0  0  0  0  0  0  0  0  0  0  0  0
  -10.6830   -2.1178    4.4558 C   0  0  0  0  0  0  0  0  0  0  0  0
   -9.2151   -2.2770    4.5747 C   0  0  0  0  0  0  0  0  0  0  0  0
   -8.6196   -2.0165    5.9320 C   0  0  0  0  0  0  0  0  0  0  0  0
   -7.0999   -2.2197    5.7259 C   0  0  0  0  0  0  0  0  0  0  0  0
   -6.3381   -1.4553    6.7800 C   0  0  0  0  0  0  0  0  0  0  0  0
   -4.8770   -1.7806    6.5831 C   0  0  0  0  0  0  0  0  0  0  0  0
   -4.0053   -1.1301    7.6339 C   0  0  0  0  0  0  0  0  0  0  0  0
   -3.8659    0.2199    7.4438 F   0  0  0  0  0  0  0  0  0  0  0  0
   -2.7346   -1.6642    7.5398 F   0  0  0  0  0  0  0  0  0  0  0  0
   -4.5061   -1.3276    8.9046 F   0  0  0  0  0  0  0  0  0  0  0  0
   -4.4400   -1.4072    5.3289 F   0  0  0  0  0  0  0  0  0  0  0  0
   -4.7214   -3.1483    6.6948 F   0  0  0  0  0  0  0  0  0  0  0  0
   -6.6340   -0.1359    6.6554 F   0  0  0  0  0  0  0  0  0  0  0  0
   -6.7956   -1.9005    8.0028 F   0  0  0  0  0  0  0  0  0  0  0  0
   -6.8301   -1.8051    4.4582 F   0  0  0  0  0  0  0  0  0  0  0  0
   -6.8849   -3.5783    5.8442 F   0  0  0  0  0  0  0  0  0  0  0  0
   -8.7898   -0.7203    6.3698 F   0  0  0  0  0  0  0  0  0  0  0  0
   -9.0170   -2.9284    6.8949 F   0  0  0  0  0  0  0  0  0  0  0  0
   -8.7912   -3.5644    4.2197 F   0  0  0  0  0  0  0  0  0  0  0  0
   -8.5594   -1.3928    3.7027 F   0  0  0  0  0  0  0  0  0  0  0  0
  -10.9659   -0.7877    4.8106 F   0  0  0  0  0  0  0  0  0  0  0  0
  -11.3171   -2.8638    5.4539 F   0  0  0  0  0  0  0  0  0  0  0  0
  -12.0045   -1.4891    2.3853 O   0  0  0  0  0  0  0  0  0  0  0  0
  1  2  2  0
  1  3  1  0
  3  4  1  0
  4  5  1  0
  5  6  1  0
  6  7  1  0
  7  8  1  0
  8  9  1  0
  9 10  1  0
  9 11  1  0
  9 12  1  0
  8 13  1  0
  8 14  1  0
  7 15  1  0
  7 16  1  0
  6 17  1  0
  6 18  1  0
  5 19  1  0
  5 20  1  0
  4 21  1  0
  4 22  1  0
  3 23  1  0
  3 24  1  0
  1 25  1  0
M  END
$$$$
