
     RDKit          3D

 25 24  0  0  0  0  0  0  0  0999 V2000
  -11.6556   -1.4825    5.5402 C   0  0  0  0  0  0  0  0  0  0  0  0
  -12.3361   -2.5619    5.4183 O   0  0  0  0  0  0  0  0  0  0  0  0
  -10.2597   -1.4507    5.0810 C   0  0  0  0  0  0  0  0  0  0  0  0
   -9.2181   -1.6731    6.1105 C   0  0  0  0  0  0  0  0  0  0  0  0
   -7.8492   -2.0479    5.6101 C   0  0  0  0  0  0  0  0  0  0  0  0
   -6.9091   -1.7225    6.7948 C   0  0  0  0  0  0  0  0  0  0  0  0
   -5.4725   -1.8245    6.3455 C   0  0  0  0  0  0  0  0  0  0  0  0
   -4.6579   -0.9814    7.2968 C   0  0  0  0  0  0  0  0  0  0  0  0
   -3.1925   -1.3546    7.2715 C   0  0  0  0  0  0  0  0  0  0  0  0
   -2.9734   -2.6023    6.7487 F   0  0  0  0  0  0  0  0  0  0  0  0
   -2.7295   -1.3969    8.5725 F   0  0  0  0  0  0  0  0  0  0  0  0
   -2.4499   -0.4530    6.5366 F   0  0  0  0  0  0  0  0  0  0  0  0
   -5.1329   -1.0740    8.5888 F   0  0  0  0  0  0  0  0  0  0  0  0
   -4.7632    0.3377    6.9015 F   0  0  0  0  0  0  0  0  0  0  0  0
   -5.1185   -3.1353    6.3242 F   0  0  0  0  0  0  0  0  0  0  0  0
   -5.4218   -1.3288    5.0592 F   0  0  0  0  0  0  0  0  0  0  0  0
   -7.2283   -2.5998    7.7847 F   0  0  0  0  0  0  0  0  0  0  0  0
   -7.2204   -0.4325    7.1757 F   0  0  0  0  0  0  0  0  0  0  0  0
   -7.7064   -3.3943    5.3497 F   0  0  0  0  0  0  0  0  0  0  0  0
   -7.4222   -1.2809    4.5396 F   0  0  0  0  0  0  0  0  0  0  0  0
   -9.0258   -0.5469    6.9217 F   0  0  0  0  0  0  0  0  0  0  0  0
   -9.6006   -2.7158    6.9699 F   0  0  0  0  0  0  0  0  0  0  0  0
  -10.0801   -2.4549    4.1144 F   0  0  0  0  0  0  0  0  0  0  0  0
   -9.9831   -0.2717    4.3824 F   0  0  0  0  0  0  0  0  0  0  0  0
  -12.3359   -0.4225    6.1110 O   0  0  0  0  0  0  0  0  0  0  0  0
  1  2  2  0
  1  3  1  0
  3  4  1  0
  4  5  1  0
  5  6  1  0
  6  7  1  0
  7  8  1  0
  8  9  1  0
  9 10  1  0
  9 11  1  0
  9 12  1  0
  8 13  1  0
  8 14  1  0
  7 15  1  0
  7 16  1  0
  6 17  1  0
  6 18  1  0
  5 19  1  0
  5 20  1  0
  4 21  1  0
  4 22  1  0
  3 23  1  0
  3 24  1  0
  1 25  1  0
M  END
$$$$
