
     RDKit          3D

 25 24  0  0  0  0  0  0  0  0999 V2000
  -11.0316   -2.9474    3.5061 C   0  0  0  0  0  0  0  0  0  0  0  0
  -12.0750   -3.4040    4.0942 O   0  0  0  0  0  0  0  0  0  0  0  0
  -10.2697   -1.8550    4.1278 C   0  0  0  0  0  0  0  0  0  0  0  0
   -9.4709   -2.2022    5.3260 C   0  0  0  0  0  0  0  0  0  0  0  0
   -8.4862   -1.1671    5.7992 C   0  0  0  0  0  0  0  0  0  0  0  0
   -7.3465   -1.9923    6.4420 C   0  0  0  0  0  0  0  0  0  0  0  0
   -6.0170   -1.5314    5.8978 C   0  0  0  0  0  0  0  0  0  0  0  0
   -4.9504   -2.2539    6.6850 C   0  0  0  0  0  0  0  0  0  0  0  0
   -4.2155   -1.3263    7.6269 C   0  0  0  0  0  0  0  0  0  0  0  0
   -4.4188   -1.6414    8.9450 F   0  0  0  0  0  0  0  0  0  0  0  0
   -4.7112   -0.0480    7.4569 F   0  0  0  0  0  0  0  0  0  0  0  0
   -2.8552   -1.3385    7.3953 F   0  0  0  0  0  0  0  0  0  0  0  0
   -4.0427   -2.8772    5.8537 F   0  0  0  0  0  0  0  0  0  0  0  0
   -5.5635   -3.2286    7.4474 F   0  0  0  0  0  0  0  0  0  0  0  0
   -5.9863   -1.7813    4.5635 F   0  0  0  0  0  0  0  0  0  0  0  0
   -5.9569   -0.1677    6.0969 F   0  0  0  0  0  0  0  0  0  0  0  0
   -7.6197   -3.2964    6.1657 F   0  0  0  0  0  0  0  0  0  0  0  0
   -7.4358   -1.7589    7.7998 F   0  0  0  0  0  0  0  0  0  0  0  0
   -7.9183   -0.4375    4.7764 F   0  0  0  0  0  0  0  0  0  0  0  0
   -8.9867   -0.3391    6.7894 F   0  0  0  0  0  0  0  0  0  0  0  0
  -10.2771   -2.4882    6.4357 F   0  0  0  0  0  0  0  0  0  0  0  0
   -8.7110   -3.3581    5.0838 F   0  0  0  0  0  0  0  0  0  0  0  0
   -9.3631   -1.3433    3.1837 F   0  0  0  0  0  0  0  0  0  0  0  0
  -11.0934   -0.7624    4.4149 F   0  0  0  0  0  0  0  0  0  0  0  0
  -10.7225   -3.5573    2.3041 O   0  0  0  0  0  0  0  0  0  0  0  0
  1  2  2  0
  1  3  1  0
  3  4  1  0
  4  5  1  0
  5  6  1  0
  6  7  1  0
  7  8  1  0
  8  9  1  0
  9 10  1  0
  9 11  1  0
  9 12  1  0
  8 13  1  0
  8 14  1  0
  7 15  1  0
  7 16  1  0
  6 17  1  0
  6 18  1  0
  5 19  1  0
  5 20  1  0
  4 21  1  0
  4 22  1  0
  3 23  1  0
  3 24  1  0
  1 25  1  0
M  END
$$$$
