
     RDKit          3D

 25 24  0  0  0  0  0  0  0  0999 V2000
   -9.7634   -2.1266    5.2673 C   0  0  0  0  0  0  0  0  0  0  0  0
  -10.0063   -1.5252    4.1617 O   0  0  0  0  0  0  0  0  0  0  0  0
   -8.7534   -1.5779    6.1834 C   0  0  0  0  0  0  0  0  0  0  0  0
   -7.3597   -2.0394    5.9868 C   0  0  0  0  0  0  0  0  0  0  0  0
   -6.3365   -1.5178    6.9594 C   0  0  0  0  0  0  0  0  0  0  0  0
   -4.9796   -1.8039    6.2737 C   0  0  0  0  0  0  0  0  0  0  0  0
   -4.0162   -0.6804    6.5666 C   0  0  0  0  0  0  0  0  0  0  0  0
   -2.6262   -1.2597    6.4586 C   0  0  0  0  0  0  0  0  0  0  0  0
   -1.5665   -0.1822    6.3998 C   0  0  0  0  0  0  0  0  0  0  0  0
   -2.0862    1.0786    6.5351 F   0  0  0  0  0  0  0  0  0  0  0  0
   -0.9724   -0.2207    5.1531 F   0  0  0  0  0  0  0  0  0  0  0  0
   -0.6119   -0.3526    7.3817 F   0  0  0  0  0  0  0  0  0  0  0  0
   -2.5051   -2.0831    5.3582 F   0  0  0  0  0  0  0  0  0  0  0  0
   -2.3887   -2.0226    7.5851 F   0  0  0  0  0  0  0  0  0  0  0  0
   -4.2619    0.3362    5.7006 F   0  0  0  0  0  0  0  0  0  0  0  0
   -4.2866   -0.2485    7.8484 F   0  0  0  0  0  0  0  0  0  0  0  0
   -5.2481   -1.9525    4.9481 F   0  0  0  0  0  0  0  0  0  0  0  0
   -4.5329   -2.9946    6.8110 F   0  0  0  0  0  0  0  0  0  0  0  0
   -6.4031   -0.1541    7.1518 F   0  0  0  0  0  0  0  0  0  0  0  0
   -6.3243   -2.1956    8.1664 F   0  0  0  0  0  0  0  0  0  0  0  0
   -7.2512   -3.4354    6.0408 F   0  0  0  0  0  0  0  0  0  0  0  0
   -6.8972   -1.6580    4.7170 F   0  0  0  0  0  0  0  0  0  0  0  0
   -8.7297   -0.1797    6.0432 F   0  0  0  0  0  0  0  0  0  0  0  0
   -9.1249   -1.7659    7.5181 F   0  0  0  0  0  0  0  0  0  0  0  0
  -10.5085   -3.2704    5.4880 O   0  0  0  0  0  0  0  0  0  0  0  0
  1  2  2  0
  1  3  1  0
  3  4  1  0
  4  5  1  0
  5  6  1  0
  6  7  1  0
  7  8  1  0
  8  9  1  0
  9 10  1  0
  9 11  1  0
  9 12  1  0
  8 13  1  0
  8 14  1  0
  7 15  1  0
  7 16  1  0
  6 17  1  0
  6 18  1  0
  5 19  1  0
  5 20  1  0
  4 21  1  0
  4 22  1  0
  3 23  1  0
  3 24  1  0
  1 25  1  0
M  END
$$$$
