
     RDKit          3D

 29 28  0  0  0  0  0  0  0  0999 V2000
    5.3707   -1.2333   -5.2061 C   0  0  0  0  0  0  0  0  0  0  0  0
    6.6844   -0.8931   -5.8791 C   0  0  0  0  0  0  0  0  0  0  0  0
    7.2740   -2.0197   -6.6545 C   0  0  0  0  0  0  0  0  0  0  0  0
    8.0505   -1.4833   -7.8465 C   0  0  0  0  0  0  0  0  0  0  0  0
    8.4540   -2.5571   -8.8036 C   0  0  0  0  0  0  0  0  0  0  0  0
    9.3401   -3.4673   -8.3123 F   0  0  0  0  0  0  0  0  0  0  0  0
    7.3401   -3.2432   -9.2703 F   0  0  0  0  0  0  0  0  0  0  0  0
    9.1252   -1.7205  -10.2418 S   0  0  0  0  0  0  0  0  0  0  0  0
    9.7439   -2.7525  -11.1472 O   0  0  0  0  0  0  0  0  0  0  0  0
   10.1050   -0.6715   -9.8661 O   0  0  0  0  0  0  0  0  0  0  0  0
    7.8211   -1.0179  -11.0681 O   0  0  0  0  0  0  0  0  0  0  0  0
    7.3456   -0.5309   -8.5382 F   0  0  0  0  0  0  0  0  0  0  0  0
    9.1991   -0.8727   -7.3652 F   0  0  0  0  0  0  0  0  0  0  0  0
    8.1582   -2.7523   -5.8936 F   0  0  0  0  0  0  0  0  0  0  0  0
    6.3492   -2.8948   -7.1542 F   0  0  0  0  0  0  0  0  0  0  0  0
    6.5618    0.2230   -6.6845 F   0  0  0  0  0  0  0  0  0  0  0  0
    7.5900   -0.5348   -4.8909 F   0  0  0  0  0  0  0  0  0  0  0  0
    5.0838   -0.0729   -4.2666 C   0  0  0  0  0  0  0  0  0  0  0  0
    3.9231   -0.2972   -3.3627 C   0  0  0  0  0  0  0  0  0  0  0  0
    3.8354    0.7887   -2.3017 C   0  0  0  0  0  0  0  0  0  0  0  0
    4.2544    0.3247   -1.0693 F   0  0  0  0  0  0  0  0  0  0  0  0
    4.5228    1.9112   -2.6948 F   0  0  0  0  0  0  0  0  0  0  0  0
    2.5074    1.1787   -2.1111 F   0  0  0  0  0  0  0  0  0  0  0  0
    2.7706   -0.1742   -4.1281 F   0  0  0  0  0  0  0  0  0  0  0  0
    3.9038   -1.5191   -2.7627 F   0  0  0  0  0  0  0  0  0  0  0  0
    4.8164    1.0287   -5.0590 F   0  0  0  0  0  0  0  0  0  0  0  0
    6.2629    0.1608   -3.5876 F   0  0  0  0  0  0  0  0  0  0  0  0
    5.5318   -2.3881   -4.4674 F   0  0  0  0  0  0  0  0  0  0  0  0
    4.3513   -1.4155   -6.0844 F   0  0  0  0  0  0  0  0  0  0  0  0
  1  2  1  0
  2  3  1  0
  3  4  1  0
  4  5  1  0
  5  6  1  0
  5  7  1  0
  5  8  1  0
  8  9  2  0
  8 10  2  0
  8 11  1  0
  4 12  1  0
  4 13  1  0
  3 14  1  0
  3 15  1  0
  2 16  1  0
  2 17  1  0
  1 18  1  0
 18 19  1  0
 19 20  1  0
 20 21  1  0
 20 22  1  0
 20 23  1  0
 19 24  1  0
 19 25  1  0
 18 26  1  0
 18 27  1  0
  1 28  1  0
  1 29  1  0
M  END
$$$$
