
     RDKit          3D

 41 44  0  0  0  0  0  0  0  0999 V2000
   20.2483  -42.0916   16.6579 C   0  0  0  0  0  0  0  0  0  0  0  0
   19.9332  -43.5428   16.9164 C   0  0  0  0  0  0  0  0  0  0  0  0
   20.9136  -44.3051   17.7303 C   0  0  0  0  0  0  0  0  0  0  0  0
   19.3961  -44.2394   15.7229 C   0  0  0  0  0  0  0  0  0  0  0  0
   20.0907  -44.7186   14.6312 C   0  0  0  0  0  0  0  0  0  0  0  0
   19.0933  -45.2899   13.8238 C   0  0  0  0  0  0  0  0  0  0  0  0
   17.8609  -45.1580   14.4057 C   0  0  0  0  0  0  0  0  0  0  0  0
   18.0641  -44.5165   15.5612 N   0  0  0  0  0  0  0  0  0  0  0  0
   16.9745  -44.1986   16.4741 C   0  0  0  0  0  0  0  0  0  0  0  0
   16.0565  -43.1470   15.9665 C   0  0  0  0  0  0  0  0  0  0  0  0
   14.8848  -43.0757   16.9642 C   0  0  0  0  0  0  0  0  0  0  0  0
   15.0085  -41.9031   17.8570 C   0  0  0  0  0  0  0  0  0  0  0  0
   14.1945  -42.0284   19.0994 C   0  0  0  0  0  0  0  0  0  0  0  0
   14.2268  -40.8375   19.9890 C   0  0  0  0  0  0  0  0  0  0  0  0
   13.2254  -41.0995   21.0980 C   0  0  0  0  0  0  0  0  0  0  0  0
   12.6176  -42.2241   21.0746 O   0  0  0  0  0  0  0  0  0  0  0  0
   12.9858  -40.1590   22.0873 O   0  0  0  0  0  0  0  0  0  0  0  0
   14.4779  -43.2142   19.7965 O   0  0  0  0  0  0  0  0  0  0  0  0
   13.6868  -43.0351   16.2225 O   0  0  0  0  0  0  0  0  0  0  0  0
   16.6277  -45.6677   13.8117 C   0  0  0  0  0  0  0  0  0  0  0  0
   16.3419  -47.0070   14.0727 C   0  0  0  0  0  0  0  0  0  0  0  0
   15.2207  -47.6248   13.5677 C   0  0  0  0  0  0  0  0  0  0  0  0
   14.3673  -46.8769   12.7822 C   0  0  0  0  0  0  0  0  0  0  0  0
   14.6424  -45.5503   12.5187 C   0  0  0  0  0  0  0  0  0  0  0  0
   15.7826  -44.9219   13.0315 C   0  0  0  0  0  0  0  0  0  0  0  0
   13.2730  -47.5145   12.2999 F   0  0  0  0  0  0  0  0  0  0  0  0
   19.2712  -45.9630   12.5249 C   0  0  0  0  0  0  0  0  0  0  0  0
   19.0330  -45.2851   11.3415 C   0  0  0  0  0  0  0  0  0  0  0  0
   19.2118  -45.9325   10.1178 C   0  0  0  0  0  0  0  0  0  0  0  0
   19.6269  -47.2515   10.0871 C   0  0  0  0  0  0  0  0  0  0  0  0
   19.8577  -47.9049   11.2799 C   0  0  0  0  0  0  0  0  0  0  0  0
   19.6876  -47.2848   12.5062 C   0  0  0  0  0  0  0  0  0  0  0  0
   21.4728  -44.7352   14.2614 C   0  0  0  0  0  0  0  0  0  0  0  0
   22.1350  -43.6574   14.5239 O   0  0  0  0  0  0  0  0  0  0  0  0
   22.2301  -45.7420   13.6508 N   0  0  0  0  0  0  0  0  0  0  0  0
   23.5629  -45.6572   13.1780 C   0  0  0  0  0  0  0  0  0  0  0  0
   24.2113  -44.4103   13.2826 C   0  0  0  0  0  0  0  0  0  0  0  0
   25.5017  -44.2248   12.8454 C   0  0  0  0  0  0  0  0  0  0  0  0
   26.2269  -45.2334   12.2870 C   0  0  0  0  0  0  0  0  0  0  0  0
   25.6195  -46.4745   12.1687 C   0  0  0  0  0  0  0  0  0  0  0  0
   24.2950  -46.6499   12.6212 C   0  0  0  0  0  0  0  0  0  0  0  0
  1  2  1  0
  2  3  1  0
  2  4  1  0
  4  5  2  0
  5  6  1  0
  6  7  2  0
  7  8  1  0
  8  9  1  0
  9 10  1  0
 10 11  1  0
 11 12  1  0
 12 13  1  0
 13 14  1  0
 14 15  1  0
 15 16  2  0
 15 17  1  0
 13 18  1  0
 11 19  1  0
  7 20  1  0
 20 21  1  0
 21 22  2  0
 22 23  1  0
 23 24  2  0
 24 25  1  0
 23 26  1  0
  6 27  1  0
 27 28  2  0
 28 29  1  0
 29 30  2  0
 30 31  1  0
 31 32  2  0
  5 33  1  0
 33 34  2  0
 33 35  1  0
 35 36  1  0
 36 37  2  0
 37 38  1  0
 38 39  2  0
 39 40  1  0
 40 41  2  0
  8  4  1  0
 25 20  2  0
 32 27  1  0
 41 36  1  0
M  END
$$$$
