
     RDKit          3D

 41 44  0  0  0  0  0  0  0  0999 V2000
   27.9001  -68.2428   35.4058 C   0  0  0  0  0  0  0  0  0  0  0  0
   26.5419  -68.4502   36.0257 C   0  0  0  0  0  0  0  0  0  0  0  0
   26.4944  -68.5785   37.5042 C   0  0  0  0  0  0  0  0  0  0  0  0
   25.6967  -69.3994   35.2622 C   0  0  0  0  0  0  0  0  0  0  0  0
   24.4001  -69.2237   34.8240 C   0  0  0  0  0  0  0  0  0  0  0  0
   24.1079  -70.4227   34.1529 C   0  0  0  0  0  0  0  0  0  0  0  0
   25.1793  -71.2744   34.1888 C   0  0  0  0  0  0  0  0  0  0  0  0
   26.1377  -70.6352   34.8677 N   0  0  0  0  0  0  0  0  0  0  0  0
   27.4461  -71.2285   35.1075 C   0  0  0  0  0  0  0  0  0  0  0  0
   28.5338  -70.6268   34.2945 C   0  0  0  0  0  0  0  0  0  0  0  0
   29.8263  -71.3707   34.6806 C   0  0  0  0  0  0  0  0  0  0  0  0
   30.6208  -71.7260   33.4848 C   0  0  0  0  0  0  0  0  0  0  0  0
   31.8213  -72.5489   33.8065 C   0  0  0  0  0  0  0  0  0  0  0  0
   32.5989  -73.0062   32.6245 C   0  0  0  0  0  0  0  0  0  0  0  0
   33.8347  -73.7018   33.1633 C   0  0  0  0  0  0  0  0  0  0  0  0
   34.0788  -73.5631   34.4106 O   0  0  0  0  0  0  0  0  0  0  0  0
   34.6562  -74.4512   32.3361 O   0  0  0  0  0  0  0  0  0  0  0  0
   31.5155  -73.6076   34.6772 O   0  0  0  0  0  0  0  0  0  0  0  0
   30.5564  -70.5432   35.5576 O   0  0  0  0  0  0  0  0  0  0  0  0
   25.1843  -72.5942   33.5627 C   0  0  0  0  0  0  0  0  0  0  0  0
   24.2784  -73.5140   34.0890 C   0  0  0  0  0  0  0  0  0  0  0  0
   24.1815  -74.7991   33.6064 C   0  0  0  0  0  0  0  0  0  0  0  0
   25.0153  -75.1665   32.5699 C   0  0  0  0  0  0  0  0  0  0  0  0
   25.9151  -74.2622   32.0428 C   0  0  0  0  0  0  0  0  0  0  0  0
   26.0144  -72.9557   32.5335 C   0  0  0  0  0  0  0  0  0  0  0  0
   24.8956  -76.4385   32.1180 F   0  0  0  0  0  0  0  0  0  0  0  0
   22.8511  -70.7831   33.4728 C   0  0  0  0  0  0  0  0  0  0  0  0
   21.7439  -71.1807   34.2026 C   0  0  0  0  0  0  0  0  0  0  0  0
   20.5577  -71.5131   33.5463 C   0  0  0  0  0  0  0  0  0  0  0  0
   20.4879  -71.4454   32.1666 C   0  0  0  0  0  0  0  0  0  0  0  0
   21.6048  -71.0463   31.4623 C   0  0  0  0  0  0  0  0  0  0  0  0
   22.7927  -70.7116   32.0900 C   0  0  0  0  0  0  0  0  0  0  0  0
   23.4545  -68.1542   34.9201 C   0  0  0  0  0  0  0  0  0  0  0  0
   23.9581  -66.9748   35.0756 O   0  0  0  0  0  0  0  0  0  0  0  0
   22.0555  -68.1818   34.8754 N   0  0  0  0  0  0  0  0  0  0  0  0
   21.1692  -67.0785   34.8091 C   0  0  0  0  0  0  0  0  0  0  0  0
   21.3084  -66.0736   35.7872 C   0  0  0  0  0  0  0  0  0  0  0  0
   20.4918  -64.9675   35.8122 C   0  0  0  0  0  0  0  0  0  0  0  0
   19.5029  -64.7793   34.8949 C   0  0  0  0  0  0  0  0  0  0  0  0
   19.3379  -65.7491   33.9173 C   0  0  0  0  0  0  0  0  0  0  0  0
   20.1828  -66.8786   33.9044 C   0  0  0  0  0  0  0  0  0  0  0  0
  1  2  1  0
  2  3  1  0
  2  4  1  0
  4  5  2  0
  5  6  1  0
  6  7  2  0
  7  8  1  0
  8  9  1  0
  9 10  1  0
 10 11  1  0
 11 12  1  0
 12 13  1  0
 13 14  1  0
 14 15  1  0
 15 16  2  0
 15 17  1  0
 13 18  1  0
 11 19  1  0
  7 20  1  0
 20 21  1  0
 21 22  2  0
 22 23  1  0
 23 24  2  0
 24 25  1  0
 23 26  1  0
  6 27  1  0
 27 28  2  0
 28 29  1  0
 29 30  2  0
 30 31  1  0
 31 32  2  0
  5 33  1  0
 33 34  2  0
 33 35  1  0
 35 36  1  0
 36 37  2  0
 37 38  1  0
 38 39  2  0
 39 40  1  0
 40 41  2  0
  8  4  1  0
 25 20  2  0
 32 27  1  0
 41 36  1  0
M  END
$$$$
