
     RDKit          3D

 41 44  0  0  0  0  0  0  0  0999 V2000
   27.5490  -50.8571    3.3489 C   0  0  0  0  0  0  0  0  0  0  0  0
   28.6792  -50.5178    2.4109 C   0  0  0  0  0  0  0  0  0  0  0  0
   29.7370  -51.5456    2.2394 C   0  0  0  0  0  0  0  0  0  0  0  0
   29.1478  -49.1183    2.5526 C   0  0  0  0  0  0  0  0  0  0  0  0
   30.0919  -48.6200    3.4268 C   0  0  0  0  0  0  0  0  0  0  0  0
   30.1462  -47.2510    3.1167 C   0  0  0  0  0  0  0  0  0  0  0  0
   29.2753  -46.9460    2.1051 C   0  0  0  0  0  0  0  0  0  0  0  0
   28.6762  -48.0946    1.7736 N   0  0  0  0  0  0  0  0  0  0  0  0
   27.6781  -48.1719    0.7157 C   0  0  0  0  0  0  0  0  0  0  0  0
   26.3503  -47.6322    1.1056 C   0  0  0  0  0  0  0  0  0  0  0  0
   25.5438  -47.4807   -0.1982 C   0  0  0  0  0  0  0  0  0  0  0  0
   24.1406  -47.9110   -0.0163 C   0  0  0  0  0  0  0  0  0  0  0  0
   23.4768  -48.2892   -1.2963 C   0  0  0  0  0  0  0  0  0  0  0  0
   22.0552  -48.7043   -1.1627 C   0  0  0  0  0  0  0  0  0  0  0  0
   21.5482  -48.9672   -2.5681 C   0  0  0  0  0  0  0  0  0  0  0  0
   22.3779  -48.7907   -3.5247 O   0  0  0  0  0  0  0  0  0  0  0  0
   20.2449  -49.3793   -2.7969 O   0  0  0  0  0  0  0  0  0  0  0  0
   24.2318  -49.2229   -2.0246 O   0  0  0  0  0  0  0  0  0  0  0  0
   25.6217  -46.1321   -0.6009 O   0  0  0  0  0  0  0  0  0  0  0  0
   29.1170  -45.6033    1.5520 C   0  0  0  0  0  0  0  0  0  0  0  0
   29.9820  -45.2756    0.5090 C   0  0  0  0  0  0  0  0  0  0  0  0
   29.9552  -44.0416   -0.0996 C   0  0  0  0  0  0  0  0  0  0  0  0
   29.0360  -43.1164    0.3521 C   0  0  0  0  0  0  0  0  0  0  0  0
   28.1757  -43.4324    1.3841 C   0  0  0  0  0  0  0  0  0  0  0  0
   28.2031  -44.6868    2.0035 C   0  0  0  0  0  0  0  0  0  0  0  0
   29.0355  -41.9111   -0.2673 F   0  0  0  0  0  0  0  0  0  0  0  0
   31.0012  -46.2260    3.7414 C   0  0  0  0  0  0  0  0  0  0  0  0
   30.4690  -45.3154    4.6383 C   0  0  0  0  0  0  0  0  0  0  0  0
   31.2914  -44.3539    5.2278 C   0  0  0  0  0  0  0  0  0  0  0  0
   32.6382  -44.3104    4.9163 C   0  0  0  0  0  0  0  0  0  0  0  0
   33.1442  -45.2288    4.0199 C   0  0  0  0  0  0  0  0  0  0  0  0
   32.3493  -46.1919    3.4219 C   0  0  0  0  0  0  0  0  0  0  0  0
   30.9160  -49.2052    4.4396 C   0  0  0  0  0  0  0  0  0  0  0  0
   31.2125  -50.4508    4.2686 O   0  0  0  0  0  0  0  0  0  0  0  0
   31.4556  -48.6388    5.6006 N   0  0  0  0  0  0  0  0  0  0  0  0
   32.3515  -49.2374    6.5205 C   0  0  0  0  0  0  0  0  0  0  0  0
   33.0170  -48.3872    7.4262 C   0  0  0  0  0  0  0  0  0  0  0  0
   33.9109  -48.8711    8.3523 C   0  0  0  0  0  0  0  0  0  0  0  0
   34.2045  -50.1975    8.4478 C   0  0  0  0  0  0  0  0  0  0  0  0
   33.5672  -51.0632    7.5715 C   0  0  0  0  0  0  0  0  0  0  0  0
   32.6529  -50.5524    6.6266 C   0  0  0  0  0  0  0  0  0  0  0  0
  1  2  1  0
  2  3  1  0
  2  4  1  0
  4  5  2  0
  5  6  1  0
  6  7  2  0
  7  8  1  0
  8  9  1  0
  9 10  1  0
 10 11  1  0
 11 12  1  0
 12 13  1  0
 13 14  1  0
 14 15  1  0
 15 16  2  0
 15 17  1  0
 13 18  1  0
 11 19  1  0
  7 20  1  0
 20 21  1  0
 21 22  2  0
 22 23  1  0
 23 24  2  0
 24 25  1  0
 23 26  1  0
  6 27  1  0
 27 28  2  0
 28 29  1  0
 29 30  2  0
 30 31  1  0
 31 32  2  0
  5 33  1  0
 33 34  2  0
 33 35  1  0
 35 36  1  0
 36 37  2  0
 37 38  1  0
 38 39  2  0
 39 40  1  0
 40 41  2  0
  8  4  1  0
 25 20  2  0
 32 27  1  0
 41 36  1  0
M  END
$$$$
