
     RDKit          3D

  4  3  0  0  0  0  0  0  0  0999 V2000
   -1.8262  -12.8331  -23.5512 C   0  0  0  0  0  0  0  0  0  0  0  0
   -3.0995  -13.6067  -23.2672 C   0  0  0  0  0  0  0  0  0  0  0  0
   -4.0010  -12.6806  -22.0317 Cl  0  0  0  0  0  0  0  0  0  0  0  0
   -0.6470  -14.0691  -24.1012 Cl  0  0  0  0  0  0  0  0  0  0  0  0
  1  2  1  0
  2  3  1  0
  1  4  1  0
M  END
$$$$
