
     RDKit          3D

  4  3  0  0  0  0  0  0  0  0999 V2000
   10.8427   -6.3087  -22.2145 C   0  0  0  0  0  0  0  0  0  0  0  0
   10.2071   -6.1855  -23.5861 C   0  0  0  0  0  0  0  0  0  0  0  0
   10.9563   -4.7672  -24.3762 Cl  0  0  0  0  0  0  0  0  0  0  0  0
    9.6479   -7.2174  -21.2310 Cl  0  0  0  0  0  0  0  0  0  0  0  0
  1  2  1  0
  2  3  1  0
  1  4  1  0
M  END
$$$$
