
     RDKit          3D

  4  3  0  0  0  0  0  0  0  0999 V2000
  -14.1639  -11.9852   12.3988 C   0  0  0  0  0  0  0  0  0  0  0  0
  -13.5194  -13.2253   12.9879 C   0  0  0  0  0  0  0  0  0  0  0  0
  -12.7657  -12.7309   14.5321 Cl  0  0  0  0  0  0  0  0  0  0  0  0
  -14.8761  -12.5283   10.8437 Cl  0  0  0  0  0  0  0  0  0  0  0  0
  1  2  1  0
  2  3  1  0
  1  4  1  0
M  END
$$$$
