
     RDKit          3D

  4  3  0  0  0  0  0  0  0  0999 V2000
  -13.2693   -1.0487   14.4658 C   0  0  0  0  0  0  0  0  0  0  0  0
  -13.6876   -1.4835   15.8573 C   0  0  0  0  0  0  0  0  0  0  0  0
  -14.9359   -2.7466   15.6494 Cl  0  0  0  0  0  0  0  0  0  0  0  0
  -11.7296   -0.1577   14.7028 Cl  0  0  0  0  0  0  0  0  0  0  0  0
  1  2  1  0
  2  3  1  0
  1  4  1  0
M  END
$$$$
