
     RDKit          3D

  4  3  0  0  0  0  0  0  0  0999 V2000
    4.0053   -7.3326    2.7159 C   0  0  0  0  0  0  0  0  0  0  0  0
    3.9109   -8.8112    2.4418 C   0  0  0  0  0  0  0  0  0  0  0  0
    2.5558   -9.2410    1.4132 Cl  0  0  0  0  0  0  0  0  0  0  0  0
    5.5564   -6.9468    3.5265 Cl  0  0  0  0  0  0  0  0  0  0  0  0
  1  2  1  0
  2  3  1  0
  1  4  1  0
M  END
$$$$
