
     RDKit          3D

  4  3  0  0  0  0  0  0  0  0999 V2000
    2.1267    0.6128   -4.3807 C   0  0  0  0  0  0  0  0  0  0  0  0
    2.9347    1.0215   -5.5851 C   0  0  0  0  0  0  0  0  0  0  0  0
    3.9625   -0.2613   -6.1988 Cl  0  0  0  0  0  0  0  0  0  0  0  0
    1.7061    2.0496   -3.3955 Cl  0  0  0  0  0  0  0  0  0  0  0  0
  1  2  1  0
  2  3  1  0
  1  4  1  0
M  END
$$$$
