
     RDKit          3D

  4  3  0  0  0  0  0  0  0  0999 V2000
  -11.6741    1.9602  -10.9764 C   0  0  0  0  0  0  0  0  0  0  0  0
  -10.6867    2.9617  -11.5173 C   0  0  0  0  0  0  0  0  0  0  0  0
   -9.4025    3.3501  -10.3865 Cl  0  0  0  0  0  0  0  0  0  0  0  0
  -12.9190    1.5839  -12.2094 Cl  0  0  0  0  0  0  0  0  0  0  0  0
  1  2  1  0
  2  3  1  0
  1  4  1  0
M  END
$$$$
