
     RDKit          3D

  4  3  0  0  0  0  0  0  0  0999 V2000
   -5.6357   -9.5516   -8.9025 C   0  0  0  0  0  0  0  0  0  0  0  0
   -6.9019   -8.7356   -8.8660 C   0  0  0  0  0  0  0  0  0  0  0  0
   -6.9754   -7.5124  -10.1219 Cl  0  0  0  0  0  0  0  0  0  0  0  0
   -5.2244  -10.1377   -7.2596 Cl  0  0  0  0  0  0  0  0  0  0  0  0
  1  2  1  0
  2  3  1  0
  1  4  1  0
M  END
$$$$
