
     RDKit          3D

 29 28  0  0  0  0  0  0  0  0999 V2000
   -1.8900   -8.0189   -8.4209 C   0  0  0  0  0  0  0  0  0  0  0  0
   -0.6964   -8.9357   -8.3229 C   0  0  0  0  0  0  0  0  0  0  0  0
   -1.0309  -10.3627   -8.2191 C   0  0  0  0  0  0  0  0  0  0  0  0
   -0.0480  -11.3530   -8.7630 C   0  0  0  0  0  0  0  0  0  0  0  0
   -0.3033  -12.7891   -8.6461 C   0  0  0  0  0  0  0  0  0  0  0  0
   -1.4339  -13.3031   -9.1861 F   0  0  0  0  0  0  0  0  0  0  0  0
   -0.2194  -13.2364   -7.3183 F   0  0  0  0  0  0  0  0  0  0  0  0
    1.0730  -13.5833   -9.5094 S   0  0  0  0  0  0  0  0  0  0  0  0
    1.4903  -12.6979  -10.6696 O   0  0  0  0  0  0  0  0  0  0  0  0
    0.6362  -14.8813  -10.0842 O   0  0  0  0  0  0  0  0  0  0  0  0
    2.4025  -13.7392   -8.5288 O   0  0  0  0  0  0  0  0  0  0  0  0
    0.1755  -11.0106  -10.0870 F   0  0  0  0  0  0  0  0  0  0  0  0
    1.1611  -11.0840   -8.1171 F   0  0  0  0  0  0  0  0  0  0  0  0
   -0.9577  -10.6605   -6.8187 F   0  0  0  0  0  0  0  0  0  0  0  0
   -2.3166  -10.6229   -8.5855 F   0  0  0  0  0  0  0  0  0  0  0  0
    0.1751   -8.5136   -7.3323 F   0  0  0  0  0  0  0  0  0  0  0  0
    0.0103   -8.7305   -9.5327 F   0  0  0  0  0  0  0  0  0  0  0  0
   -1.9314   -7.0026   -9.4677 C   0  0  0  0  0  0  0  0  0  0  0  0
   -3.2735   -6.4929   -9.9235 C   0  0  0  0  0  0  0  0  0  0  0  0
   -3.3487   -5.1249  -10.4820 C   0  0  0  0  0  0  0  0  0  0  0  0
   -2.4902   -5.1455  -11.6183 F   0  0  0  0  0  0  0  0  0  0  0  0
   -4.5688   -4.7172  -10.9200 F   0  0  0  0  0  0  0  0  0  0  0  0
   -2.7233   -4.1792   -9.6602 F   0  0  0  0  0  0  0  0  0  0  0  0
   -4.1216   -6.5136   -8.8022 F   0  0  0  0  0  0  0  0  0  0  0  0
   -3.8462   -7.4000  -10.8381 F   0  0  0  0  0  0  0  0  0  0  0  0
   -1.3243   -5.8054   -8.9693 F   0  0  0  0  0  0  0  0  0  0  0  0
   -1.2133   -7.2933  -10.6042 F   0  0  0  0  0  0  0  0  0  0  0  0
   -2.0646   -7.3951   -7.1763 F   0  0  0  0  0  0  0  0  0  0  0  0
   -3.0271   -8.8440   -8.5323 F   0  0  0  0  0  0  0  0  0  0  0  0
  1  2  1  0
  2  3  1  0
  3  4  1  0
  4  5  1  0
  5  6  1  0
  5  7  1  0
  5  8  1  0
  8  9  2  0
  8 10  2  0
  8 11  1  0
  4 12  1  0
  4 13  1  0
  3 14  1  0
  3 15  1  0
  2 16  1  0
  2 17  1  0
  1 18  1  0
 18 19  1  0
 19 20  1  0
 20 21  1  0
 20 22  1  0
 20 23  1  0
 19 24  1  0
 19 25  1  0
 18 26  1  0
 18 27  1  0
  1 28  1  0
  1 29  1  0
M  END
$$$$
