
     RDKit          3D

  9  8  0  0  0  0  0  0  0  0999 V2000
    6.4458  -41.8480    0.1302 C   0  0  0  0  0  0  0  0  0  0  0  0
    6.7268  -42.6386    1.3762 C   0  0  0  0  0  0  0  0  0  0  0  0
    5.3509  -42.9357    1.9821 C   0  0  0  0  0  0  0  0  0  0  0  0
    7.3313  -43.9803    1.0974 C   0  0  0  0  0  0  0  0  0  0  0  0
    7.3255  -44.8676    2.2661 C   0  0  0  0  0  0  0  0  0  0  0  0
    8.4152  -45.0754    2.8837 O   0  0  0  0  0  0  0  0  0  0  0  0
    6.1430  -45.4517    2.6637 O   0  0  0  0  0  0  0  0  0  0  0  0
    8.6177  -43.7731    0.5204 N   0  0  0  0  0  0  0  0  0  0  0  0
    7.6644  -41.7442    2.6098 S   0  0  0  0  0  0  0  0  0  0  0  0
  1  2  1  0
  2  3  1  0
  2  4  1  0
  4  5  1  0
  5  6  2  0
  5  7  1  0
  4  8  1  0
  2  9  1  0
M  END
$$$$
