
     RDKit          3D

  9  8  0  0  0  0  0  0  0  0999 V2000
   17.9245  -34.4119   27.7894 C   0  0  0  0  0  0  0  0  0  0  0  0
   19.0449  -33.6025   28.3778 C   0  0  0  0  0  0  0  0  0  0  0  0
   20.0088  -33.3458   27.2143 C   0  0  0  0  0  0  0  0  0  0  0  0
   18.6113  -32.2440   28.8357 C   0  0  0  0  0  0  0  0  0  0  0  0
   19.7370  -31.3579   29.1534 C   0  0  0  0  0  0  0  0  0  0  0  0
   20.4149  -30.8620   28.2012 O   0  0  0  0  0  0  0  0  0  0  0  0
   20.0304  -31.0863   30.4717 O   0  0  0  0  0  0  0  0  0  0  0  0
   17.6765  -32.4142   29.8977 N   0  0  0  0  0  0  0  0  0  0  0  0
   19.9692  -34.4557   29.6500 S   0  0  0  0  0  0  0  0  0  0  0  0
  1  2  1  0
  2  3  1  0
  2  4  1  0
  4  5  1  0
  5  6  2  0
  5  7  1  0
  4  8  1  0
  2  9  1  0
M  END
$$$$
