
     RDKit          3D

  9  8  0  0  0  0  0  0  0  0999 V2000
   12.9838  -18.9776   -7.9354 C   0  0  0  0  0  0  0  0  0  0  0  0
   13.5416  -18.0120   -6.9288 C   0  0  0  0  0  0  0  0  0  0  0  0
   14.8945  -17.5735   -7.4999 C   0  0  0  0  0  0  0  0  0  0  0  0
   12.7377  -16.7538   -6.8129 C   0  0  0  0  0  0  0  0  0  0  0  0
   12.3981  -16.1665   -8.1142 C   0  0  0  0  0  0  0  0  0  0  0  0
   11.3829  -16.6045   -8.7385 O   0  0  0  0  0  0  0  0  0  0  0  0
   13.1854  -15.1584   -8.6254 O   0  0  0  0  0  0  0  0  0  0  0  0
   13.4241  -15.8717   -5.9288 N   0  0  0  0  0  0  0  0  0  0  0  0
   13.8564  -18.7355   -5.3231 S   0  0  0  0  0  0  0  0  0  0  0  0
  1  2  1  0
  2  3  1  0
  2  4  1  0
  4  5  1  0
  5  6  2  0
  5  7  1  0
  4  8  1  0
  2  9  1  0
M  END
$$$$
