
     RDKit          3D

  9  8  0  0  0  0  0  0  0  0999 V2000
   37.1323  -46.3429   12.3983 C   0  0  0  0  0  0  0  0  0  0  0  0
   36.0798  -45.3097   12.6841 C   0  0  0  0  0  0  0  0  0  0  0  0
   35.7243  -45.4973   14.1630 C   0  0  0  0  0  0  0  0  0  0  0  0
   36.5901  -43.9057   12.5778 C   0  0  0  0  0  0  0  0  0  0  0  0
   37.0516  -43.5623   11.2278 C   0  0  0  0  0  0  0  0  0  0  0  0
   36.2013  -43.1705   10.3701 O   0  0  0  0  0  0  0  0  0  0  0  0
   38.3907  -43.6728   10.9243 O   0  0  0  0  0  0  0  0  0  0  0  0
   37.5628  -43.7113   13.6009 N   0  0  0  0  0  0  0  0  0  0  0  0
   34.5715  -45.5286   11.7472 S   0  0  0  0  0  0  0  0  0  0  0  0
  1  2  1  0
  2  3  1  0
  2  4  1  0
  4  5  1  0
  5  6  2  0
  5  7  1  0
  4  8  1  0
  2  9  1  0
M  END
$$$$
