
     RDKit          3D

  5  4  0  0  0  0  0  0  0  0999 V2000
   -8.7964   -4.9896   -7.6402 C   0  0  0  0  0  0  0  0  0  0  0  0
   -8.5741   -6.4097   -7.3404 C   0  0  0  0  0  0  0  0  0  0  0  0
   -9.0216   -6.8344   -6.2200 O   0  0  0  0  0  0  0  0  0  0  0  0
   -7.9280   -7.2964   -8.1706 O   0  0  0  0  0  0  0  0  0  0  0  0
   -9.3792   -4.4234   -6.5043 F   0  0  0  0  0  0  0  0  0  0  0  0
  1  2  1  0
  2  3  2  0
  2  4  1  0
  1  5  1  0
M  END
$$$$
