
     RDKit          3D

  5  4  0  0  0  0  0  0  0  0999 V2000
   -5.8146    0.3759    3.6887 C   0  0  0  0  0  0  0  0  0  0  0  0
   -6.6654    1.5624    3.8447 C   0  0  0  0  0  0  0  0  0  0  0  0
   -6.5769    2.1871    4.9573 O   0  0  0  0  0  0  0  0  0  0  0  0
   -7.5352    2.0368    2.8901 O   0  0  0  0  0  0  0  0  0  0  0  0
   -5.0211    0.2943    4.8351 F   0  0  0  0  0  0  0  0  0  0  0  0
  1  2  1  0
  2  3  2  0
  2  4  1  0
  1  5  1  0
M  END
$$$$
