
     RDKit          3D

  5  4  0  0  0  0  0  0  0  0999 V2000
   -9.8440    8.0784    4.7685 C   0  0  0  0  0  0  0  0  0  0  0  0
  -10.9072    9.0868    4.8622 C   0  0  0  0  0  0  0  0  0  0  0  0
  -10.9454    9.7792    5.9370 O   0  0  0  0  0  0  0  0  0  0  0  0
  -11.8472    9.3306    3.8876 O   0  0  0  0  0  0  0  0  0  0  0  0
   -9.4608    7.7728    6.0763 F   0  0  0  0  0  0  0  0  0  0  0  0
  1  2  1  0
  2  3  2  0
  2  4  1  0
  1  5  1  0
M  END
$$$$
