
     RDKit          3D

  5  4  0  0  0  0  0  0  0  0999 V2000
   15.5160    5.0625    2.6608 C   0  0  0  0  0  0  0  0  0  0  0  0
   15.6962    4.7810    1.2309 C   0  0  0  0  0  0  0  0  0  0  0  0
   16.8654    4.9797    0.7520 O   0  0  0  0  0  0  0  0  0  0  0  0
   14.7078    4.3260    0.3890 O   0  0  0  0  0  0  0  0  0  0  0  0
   14.1404    5.1534    2.8844 F   0  0  0  0  0  0  0  0  0  0  0  0
  1  2  1  0
  2  3  2  0
  2  4  1  0
  1  5  1  0
M  END
$$$$
