
     RDKit          3D

 25 24  0  0  0  0  0  0  0  0999 V2000
    5.4945   -3.9203  -13.1773 C   0  0  0  0  0  0  0  0  0  0  0  0
    5.1492   -5.1211  -13.3240 O   0  0  0  0  0  0  0  0  0  0  0  0
    6.1568   -3.4160  -11.9351 C   0  0  0  0  0  0  0  0  0  0  0  0
    5.0618   -3.1487  -10.9241 C   0  0  0  0  0  0  0  0  0  0  0  0
    5.4793   -2.5399   -9.6621 C   0  0  0  0  0  0  0  0  0  0  0  0
    4.5961   -1.8961   -8.7015 C   0  0  0  0  0  0  0  0  0  0  0  0
    4.8054   -1.7343   -7.2745 C   0  0  0  0  0  0  0  0  0  0  0  0
    3.7811   -1.3348   -6.3044 C   0  0  0  0  0  0  0  0  0  0  0  0
    4.5164   -1.3942   -4.9104 C   0  0  0  0  0  0  0  0  0  0  0  0
    5.5788   -0.5488   -4.9582 F   0  0  0  0  0  0  0  0  0  0  0  0
    4.9353   -2.6873   -4.7149 F   0  0  0  0  0  0  0  0  0  0  0  0
    3.6017   -1.0776   -3.9443 F   0  0  0  0  0  0  0  0  0  0  0  0
    3.3912   -0.0274   -6.3417 F   0  0  0  0  0  0  0  0  0  0  0  0
    2.7507   -2.2352   -6.1141 F   0  0  0  0  0  0  0  0  0  0  0  0
    5.9182   -0.8747   -7.0768 F   0  0  0  0  0  0  0  0  0  0  0  0
    5.2423   -3.0233   -6.8146 F   0  0  0  0  0  0  0  0  0  0  0  0
    4.0999   -0.6576   -9.2505 F   0  0  0  0  0  0  0  0  0  0  0  0
    3.3686   -2.6579   -8.7868 F   0  0  0  0  0  0  0  0  0  0  0  0
    6.2527   -3.5513   -8.9925 F   0  0  0  0  0  0  0  0  0  0  0  0
    6.5288   -1.6354  -10.0258 F   0  0  0  0  0  0  0  0  0  0  0  0
    4.3482   -2.0588  -11.5950 F   0  0  0  0  0  0  0  0  0  0  0  0
    4.0849   -4.0895  -10.8986 F   0  0  0  0  0  0  0  0  0  0  0  0
    7.1696   -4.1939  -11.4908 F   0  0  0  0  0  0  0  0  0  0  0  0
    6.7419   -2.2051  -12.3430 F   0  0  0  0  0  0  0  0  0  0  0  0
    5.2672   -3.0014  -14.1869 O   0  0  0  0  0  0  0  0  0  0  0  0
  1  2  2  0
  1  3  1  0
  3  4  1  0
  4  5  1  0
  5  6  1  0
  6  7  1  0
  7  8  1  0
  8  9  1  0
  9 10  1  0
  9 11  1  0
  9 12  1  0
  8 13  1  0
  8 14  1  0
  7 15  1  0
  7 16  1  0
  6 17  1  0
  6 18  1  0
  5 19  1  0
  5 20  1  0
  4 21  1  0
  4 22  1  0
  3 23  1  0
  3 24  1  0
  1 25  1  0
M  END
$$$$
