
     RDKit          3D

 25 24  0  0  0  0  0  0  0  0999 V2000
    4.8365   -1.8461   -7.8489 C   0  0  0  0  0  0  0  0  0  0  0  0
    5.9025   -1.2622   -8.1738 O   0  0  0  0  0  0  0  0  0  0  0  0
    4.1237   -1.5705   -6.5636 C   0  0  0  0  0  0  0  0  0  0  0  0
    4.8732   -2.3058   -5.4726 C   0  0  0  0  0  0  0  0  0  0  0  0
    4.1467   -2.5277   -4.2234 C   0  0  0  0  0  0  0  0  0  0  0  0
    4.5099   -3.4897   -3.1939 C   0  0  0  0  0  0  0  0  0  0  0  0
    3.9523   -3.6137   -1.8598 C   0  0  0  0  0  0  0  0  0  0  0  0
    4.5013   -4.4422   -0.7819 C   0  0  0  0  0  0  0  0  0  0  0  0
    3.8882   -3.8290    0.5355 C   0  0  0  0  0  0  0  0  0  0  0  0
    4.0837   -2.4850    0.5052 F   0  0  0  0  0  0  0  0  0  0  0  0
    4.5467   -4.3899    1.6021 F   0  0  0  0  0  0  0  0  0  0  0  0
    2.5715   -4.1946    0.5903 F   0  0  0  0  0  0  0  0  0  0  0  0
    4.0430   -5.7260   -0.7137 F   0  0  0  0  0  0  0  0  0  0  0  0
    5.8561   -4.3039   -0.5489 F   0  0  0  0  0  0  0  0  0  0  0  0
    2.5766   -3.9460   -1.9755 F   0  0  0  0  0  0  0  0  0  0  0  0
    3.9710   -2.2808   -1.3239 F   0  0  0  0  0  0  0  0  0  0  0  0
    4.6367   -4.8029   -3.7778 F   0  0  0  0  0  0  0  0  0  0  0  0
    5.9158   -3.2394   -2.9591 F   0  0  0  0  0  0  0  0  0  0  0  0
    4.0107   -1.2247   -3.6291 F   0  0  0  0  0  0  0  0  0  0  0  0
    2.7907   -2.7509   -4.6276 F   0  0  0  0  0  0  0  0  0  0  0  0
    4.9369   -3.6472   -6.0589 F   0  0  0  0  0  0  0  0  0  0  0  0
    6.1962   -2.0127   -5.4103 F   0  0  0  0  0  0  0  0  0  0  0  0
    3.9012   -0.2588   -6.3221 F   0  0  0  0  0  0  0  0  0  0  0  0
    2.8598   -2.1538   -6.7570 F   0  0  0  0  0  0  0  0  0  0  0  0
    4.2727   -2.7877   -8.6920 O   0  0  0  0  0  0  0  0  0  0  0  0
  1  2  2  0
  1  3  1  0
  3  4  1  0
  4  5  1  0
  5  6  1  0
  6  7  1  0
  7  8  1  0
  8  9  1  0
  9 10  1  0
  9 11  1  0
  9 12  1  0
  8 13  1  0
  8 14  1  0
  7 15  1  0
  7 16  1  0
  6 17  1  0
  6 18  1  0
  5 19  1  0
  5 20  1  0
  4 21  1  0
  4 22  1  0
  3 23  1  0
  3 24  1  0
  1 25  1  0
M  END
$$$$
