
     RDKit          3D

 25 24  0  0  0  0  0  0  0  0999 V2000
  -22.0652  -15.4017   -5.1741 C   0  0  0  0  0  0  0  0  0  0  0  0
  -21.5171  -16.4440   -5.6567 O   0  0  0  0  0  0  0  0  0  0  0  0
  -21.3233  -14.6326   -4.1640 C   0  0  0  0  0  0  0  0  0  0  0  0
  -19.9127  -15.1315   -3.9728 C   0  0  0  0  0  0  0  0  0  0  0  0
  -19.0791  -14.4748   -5.1102 C   0  0  0  0  0  0  0  0  0  0  0  0
  -17.7924  -15.1873   -5.2817 C   0  0  0  0  0  0  0  0  0  0  0  0
  -16.8046  -14.6784   -6.2493 C   0  0  0  0  0  0  0  0  0  0  0  0
  -15.7250  -15.6700   -6.5569 C   0  0  0  0  0  0  0  0  0  0  0  0
  -14.9128  -15.0320   -7.7062 C   0  0  0  0  0  0  0  0  0  0  0  0
  -15.7137  -14.8313   -8.8011 F   0  0  0  0  0  0  0  0  0  0  0  0
  -13.8400  -15.8218   -8.0500 F   0  0  0  0  0  0  0  0  0  0  0  0
  -14.4930  -13.7961   -7.2527 F   0  0  0  0  0  0  0  0  0  0  0  0
  -16.3527  -16.8140   -7.0925 F   0  0  0  0  0  0  0  0  0  0  0  0
  -14.9297  -16.0162   -5.5192 F   0  0  0  0  0  0  0  0  0  0  0  0
  -17.4022  -14.3969   -7.4959 F   0  0  0  0  0  0  0  0  0  0  0  0
  -16.2692  -13.4510   -5.8549 F   0  0  0  0  0  0  0  0  0  0  0  0
  -18.1378  -16.5292   -5.5700 F   0  0  0  0  0  0  0  0  0  0  0  0
  -17.1236  -15.3032   -4.0449 F   0  0  0  0  0  0  0  0  0  0  0  0
  -19.9485  -14.6126   -6.2028 F   0  0  0  0  0  0  0  0  0  0  0  0
  -18.9187  -13.1558   -4.8080 F   0  0  0  0  0  0  0  0  0  0  0  0
  -19.8117  -16.4925   -4.0622 F   0  0  0  0  0  0  0  0  0  0  0  0
  -19.4103  -14.6550   -2.7924 F   0  0  0  0  0  0  0  0  0  0  0  0
  -21.9319  -14.7515   -2.9091 F   0  0  0  0  0  0  0  0  0  0  0  0
  -21.2811  -13.2923   -4.4490 F   0  0  0  0  0  0  0  0  0  0  0  0
  -23.3213  -14.9696   -5.5607 O   0  0  0  0  0  0  0  0  0  0  0  0
  1  2  2  0
  1  3  1  0
  3  4  1  0
  4  5  1  0
  5  6  1  0
  6  7  1  0
  7  8  1  0
  8  9  1  0
  9 10  1  0
  9 11  1  0
  9 12  1  0
  8 13  1  0
  8 14  1  0
  7 15  1  0
  7 16  1  0
  6 17  1  0
  6 18  1  0
  5 19  1  0
  5 20  1  0
  4 21  1  0
  4 22  1  0
  3 23  1  0
  3 24  1  0
  1 25  1  0
M  END
$$$$
