
     RDKit          3D

 25 24  0  0  0  0  0  0  0  0999 V2000
  -18.9073    5.4963    4.5620 C   0  0  0  0  0  0  0  0  0  0  0  0
  -19.6307    4.7465    3.8313 O   0  0  0  0  0  0  0  0  0  0  0  0
  -17.4474    5.3357    4.4895 C   0  0  0  0  0  0  0  0  0  0  0  0
  -16.9305    4.2789    5.4333 C   0  0  0  0  0  0  0  0  0  0  0  0
  -15.3964    4.2104    5.1848 C   0  0  0  0  0  0  0  0  0  0  0  0
  -14.7913    3.1312    5.9983 C   0  0  0  0  0  0  0  0  0  0  0  0
  -13.3618    2.8137    5.8345 C   0  0  0  0  0  0  0  0  0  0  0  0
  -12.9500    1.5791    6.5758 C   0  0  0  0  0  0  0  0  0  0  0  0
  -11.5990    1.1687    5.9480 C   0  0  0  0  0  0  0  0  0  0  0  0
  -10.7045    2.2054    6.0230 F   0  0  0  0  0  0  0  0  0  0  0  0
  -11.7604    0.7842    4.6370 F   0  0  0  0  0  0  0  0  0  0  0  0
  -11.1097    0.1272    6.7131 F   0  0  0  0  0  0  0  0  0  0  0  0
  -13.8743    0.5671    6.2423 F   0  0  0  0  0  0  0  0  0  0  0  0
  -12.8565    1.7020    7.9194 F   0  0  0  0  0  0  0  0  0  0  0  0
  -13.0444    2.5479    4.4858 F   0  0  0  0  0  0  0  0  0  0  0  0
  -12.5439    3.8973    6.1591 F   0  0  0  0  0  0  0  0  0  0  0  0
  -15.5930    1.9880    5.7677 F   0  0  0  0  0  0  0  0  0  0  0  0
  -14.9959    3.3753    7.3727 F   0  0  0  0  0  0  0  0  0  0  0  0
  -15.3524    3.9661    3.8038 F   0  0  0  0  0  0  0  0  0  0  0  0
  -14.8700    5.4377    5.4560 F   0  0  0  0  0  0  0  0  0  0  0  0
  -17.4830    3.0479    5.2098 F   0  0  0  0  0  0  0  0  0  0  0  0
  -17.1007    4.6916    6.7269 F   0  0  0  0  0  0  0  0  0  0  0  0
  -16.8021    6.5187    4.8681 F   0  0  0  0  0  0  0  0  0  0  0  0
  -17.0120    5.0450    3.2225 F   0  0  0  0  0  0  0  0  0  0  0  0
  -19.4384    6.4482    5.4142 O   0  0  0  0  0  0  0  0  0  0  0  0
  1  2  2  0
  1  3  1  0
  3  4  1  0
  4  5  1  0
  5  6  1  0
  6  7  1  0
  7  8  1  0
  8  9  1  0
  9 10  1  0
  9 11  1  0
  9 12  1  0
  8 13  1  0
  8 14  1  0
  7 15  1  0
  7 16  1  0
  6 17  1  0
  6 18  1  0
  5 19  1  0
  5 20  1  0
  4 21  1  0
  4 22  1  0
  3 23  1  0
  3 24  1  0
  1 25  1  0
M  END
$$$$
