
     RDKit          3D

 25 24  0  0  0  0  0  0  0  0999 V2000
    4.4248   17.0615   -5.4596 C   0  0  0  0  0  0  0  0  0  0  0  0
    4.0398   17.5171   -6.5839 O   0  0  0  0  0  0  0  0  0  0  0  0
    3.6093   16.0199   -4.8175 C   0  0  0  0  0  0  0  0  0  0  0  0
    3.7253   14.6829   -5.5059 C   0  0  0  0  0  0  0  0  0  0  0  0
    2.9828   13.6726   -4.5851 C   0  0  0  0  0  0  0  0  0  0  0  0
    3.0455   12.3099   -5.1610 C   0  0  0  0  0  0  0  0  0  0  0  0
    2.8139   11.1433   -4.2913 C   0  0  0  0  0  0  0  0  0  0  0  0
    2.8216    9.8465   -5.0407 C   0  0  0  0  0  0  0  0  0  0  0  0
    2.8269    8.7541   -3.9479 C   0  0  0  0  0  0  0  0  0  0  0  0
    2.8336    7.5079   -4.5202 F   0  0  0  0  0  0  0  0  0  0  0  0
    1.7375    8.8814   -3.1174 F   0  0  0  0  0  0  0  0  0  0  0  0
    4.0066    8.9065   -3.2446 F   0  0  0  0  0  0  0  0  0  0  0  0
    4.0625    9.7588   -5.7055 F   0  0  0  0  0  0  0  0  0  0  0  0
    1.8080    9.6666   -5.9179 F   0  0  0  0  0  0  0  0  0  0  0  0
    3.8346   11.0091   -3.3268 F   0  0  0  0  0  0  0  0  0  0  0  0
    1.6536   11.2813   -3.5275 F   0  0  0  0  0  0  0  0  0  0  0  0
    4.3073   12.2246   -5.7962 F   0  0  0  0  0  0  0  0  0  0  0  0
    2.1497   12.1901   -6.2444 F   0  0  0  0  0  0  0  0  0  0  0  0
    3.7021   13.8114   -3.3885 F   0  0  0  0  0  0  0  0  0  0  0  0
    1.7063   14.1177   -4.4136 F   0  0  0  0  0  0  0  0  0  0  0  0
    5.0215   14.2794   -5.6721 F   0  0  0  0  0  0  0  0  0  0  0  0
    3.0400   14.7120   -6.6900 F   0  0  0  0  0  0  0  0  0  0  0  0
    2.2506   16.3512   -4.8773 F   0  0  0  0  0  0  0  0  0  0  0  0
    3.9109   15.8589   -3.4899 F   0  0  0  0  0  0  0  0  0  0  0  0
    5.5712   17.5057   -4.8252 O   0  0  0  0  0  0  0  0  0  0  0  0
  1  2  2  0
  1  3  1  0
  3  4  1  0
  4  5  1  0
  5  6  1  0
  6  7  1  0
  7  8  1  0
  8  9  1  0
  9 10  1  0
  9 11  1  0
  9 12  1  0
  8 13  1  0
  8 14  1  0
  7 15  1  0
  7 16  1  0
  6 17  1  0
  6 18  1  0
  5 19  1  0
  5 20  1  0
  4 21  1  0
  4 22  1  0
  3 23  1  0
  3 24  1  0
  1 25  1  0
M  END
$$$$
