
     RDKit          3D

 25 24  0  0  0  0  0  0  0  0999 V2000
  -18.9766    6.1714    5.7512 C   0  0  0  0  0  0  0  0  0  0  0  0
  -19.5967    5.3249    6.4713 O   0  0  0  0  0  0  0  0  0  0  0  0
  -17.5245    6.0096    5.5859 C   0  0  0  0  0  0  0  0  0  0  0  0
  -17.0090    4.7276    6.1907 C   0  0  0  0  0  0  0  0  0  0  0  0
  -15.4600    4.8003    6.0676 C   0  0  0  0  0  0  0  0  0  0  0  0
  -14.8442    3.5563    6.5831 C   0  0  0  0  0  0  0  0  0  0  0  0
  -13.5525    3.1054    6.0361 C   0  0  0  0  0  0  0  0  0  0  0  0
  -13.0577    1.8436    6.6737 C   0  0  0  0  0  0  0  0  0  0  0  0
  -11.8557    1.4038    5.8080 C   0  0  0  0  0  0  0  0  0  0  0  0
  -11.3991    0.1766    6.2154 F   0  0  0  0  0  0  0  0  0  0  0  0
  -10.8373    2.3266    5.8722 F   0  0  0  0  0  0  0  0  0  0  0  0
  -12.3274    1.2757    4.5155 F   0  0  0  0  0  0  0  0  0  0  0  0
  -14.0612    0.8682    6.4970 F   0  0  0  0  0  0  0  0  0  0  0  0
  -12.7213    1.9363    7.9804 F   0  0  0  0  0  0  0  0  0  0  0  0
  -13.6531    2.8004    4.6624 F   0  0  0  0  0  0  0  0  0  0  0  0
  -12.5848    4.1104    6.0815 F   0  0  0  0  0  0  0  0  0  0  0  0
  -15.8332    2.5547    6.4358 F   0  0  0  0  0  0  0  0  0  0  0  0
  -14.6874    3.6266    7.9834 F   0  0  0  0  0  0  0  0  0  0  0  0
  -15.3021    4.9750    4.6844 F   0  0  0  0  0  0  0  0  0  0  0  0
  -15.0364    5.9147    6.7275 F   0  0  0  0  0  0  0  0  0  0  0  0
  -17.4649    3.6119    5.5442 F   0  0  0  0  0  0  0  0  0  0  0  0
  -17.2958    4.6999    7.5284 F   0  0  0  0  0  0  0  0  0  0  0  0
  -16.8362    7.0341    6.2463 F   0  0  0  0  0  0  0  0  0  0  0  0
  -17.1346    6.0646    4.2728 F   0  0  0  0  0  0  0  0  0  0  0  0
  -19.6121    7.2282    5.1240 O   0  0  0  0  0  0  0  0  0  0  0  0
  1  2  2  0
  1  3  1  0
  3  4  1  0
  4  5  1  0
  5  6  1  0
  6  7  1  0
  7  8  1  0
  8  9  1  0
  9 10  1  0
  9 11  1  0
  9 12  1  0
  8 13  1  0
  8 14  1  0
  7 15  1  0
  7 16  1  0
  6 17  1  0
  6 18  1  0
  5 19  1  0
  5 20  1  0
  4 21  1  0
  4 22  1  0
  3 23  1  0
  3 24  1  0
  1 25  1  0
M  END
$$$$
