
     RDKit          3D

 25 24  0  0  0  0  0  0  0  0999 V2000
    6.7335   16.9220    1.2333 C   0  0  0  0  0  0  0  0  0  0  0  0
    6.7449   17.5383    0.1199 O   0  0  0  0  0  0  0  0  0  0  0  0
    5.6544   15.9537    1.4788 C   0  0  0  0  0  0  0  0  0  0  0  0
    4.7493   15.7757    0.2855 C   0  0  0  0  0  0  0  0  0  0  0  0
    3.7610   14.6396    0.6759 C   0  0  0  0  0  0  0  0  0  0  0  0
    2.7538   14.4447   -0.3918 C   0  0  0  0  0  0  0  0  0  0  0  0
    1.7908   13.3345   -0.2870 C   0  0  0  0  0  0  0  0  0  0  0  0
    0.3686   13.8000   -0.2241 C   0  0  0  0  0  0  0  0  0  0  0  0
   -0.4783   12.5264   -0.4438 C   0  0  0  0  0  0  0  0  0  0  0  0
    0.0432   11.7785   -1.4681 F   0  0  0  0  0  0  0  0  0  0  0  0
   -1.7881   12.8458   -0.7178 F   0  0  0  0  0  0  0  0  0  0  0  0
   -0.3820   11.7843    0.7179 F   0  0  0  0  0  0  0  0  0  0  0  0
    0.1527   14.6272   -1.3459 F   0  0  0  0  0  0  0  0  0  0  0  0
    0.0096   14.4460    0.9087 F   0  0  0  0  0  0  0  0  0  0  0  0
    1.8464   12.4957   -1.4200 F   0  0  0  0  0  0  0  0  0  0  0  0
    2.0921   12.4780    0.7733 F   0  0  0  0  0  0  0  0  0  0  0  0
    3.4906   14.3630   -1.5974 F   0  0  0  0  0  0  0  0  0  0  0  0
    1.9962   15.6205   -0.5764 F   0  0  0  0  0  0  0  0  0  0  0  0
    4.6367   13.5540    0.8283 F   0  0  0  0  0  0  0  0  0  0  0  0
    3.2045   14.9593    1.8780 F   0  0  0  0  0  0  0  0  0  0  0  0
    5.4259   15.4204   -0.8487 F   0  0  0  0  0  0  0  0  0  0  0  0
    3.9976   16.9047    0.1035 F   0  0  0  0  0  0  0  0  0  0  0  0
    4.8216   16.3958    2.5134 F   0  0  0  0  0  0  0  0  0  0  0  0
    6.1267   14.7244    1.8600 F   0  0  0  0  0  0  0  0  0  0  0  0
    7.6895   17.1273    2.2120 O   0  0  0  0  0  0  0  0  0  0  0  0
  1  2  2  0
  1  3  1  0
  3  4  1  0
  4  5  1  0
  5  6  1  0
  6  7  1  0
  7  8  1  0
  8  9  1  0
  9 10  1  0
  9 11  1  0
  9 12  1  0
  8 13  1  0
  8 14  1  0
  7 15  1  0
  7 16  1  0
  6 17  1  0
  6 18  1  0
  5 19  1  0
  5 20  1  0
  4 21  1  0
  4 22  1  0
  3 23  1  0
  3 24  1  0
  1 25  1  0
M  END
$$$$
