
     RDKit          3D

  5  4  0  0  0  0  0  0  0  0999 V2000
    2.0198   -5.1245   -5.5246 C   0  0  0  0  0  0  0  0  0  0  0  0
    2.8530   -4.9804   -6.7420 C   0  0  0  0  0  0  0  0  0  0  0  0
    3.6885   -4.0277   -6.7581 O   0  0  0  0  0  0  0  0  0  0  0  0
    2.7917   -5.7913   -7.8409 O   0  0  0  0  0  0  0  0  0  0  0  0
    2.5551   -4.2325   -4.5980 F   0  0  0  0  0  0  0  0  0  0  0  0
  1  2  1  0
  2  3  2  0
  2  4  1  0
  1  5  1  0
M  END
$$$$
