
     RDKit          3D

  5  4  0  0  0  0  0  0  0  0999 V2000
   -1.2106   10.9673   -6.2639 C   0  0  0  0  0  0  0  0  0  0  0  0
   -2.6410   10.6625   -6.0232 C   0  0  0  0  0  0  0  0  0  0  0  0
   -2.9720   10.3518   -4.8401 O   0  0  0  0  0  0  0  0  0  0  0  0
   -3.6248   10.6920   -6.9719 O   0  0  0  0  0  0  0  0  0  0  0  0
   -0.5229   10.4028   -5.1919 F   0  0  0  0  0  0  0  0  0  0  0  0
  1  2  1  0
  2  3  2  0
  2  4  1  0
  1  5  1  0
M  END
$$$$
