
     RDKit          3D

  5  4  0  0  0  0  0  0  0  0999 V2000
  -18.5272    3.4995    2.7046 C   0  0  0  0  0  0  0  0  0  0  0  0
  -19.0054    2.2406    3.3238 C   0  0  0  0  0  0  0  0  0  0  0  0
  -19.1173    2.2264    4.5861 O   0  0  0  0  0  0  0  0  0  0  0  0
  -19.3347    1.1016    2.6433 O   0  0  0  0  0  0  0  0  0  0  0  0
  -17.9618    4.2354    3.7435 F   0  0  0  0  0  0  0  0  0  0  0  0
  1  2  1  0
  2  3  2  0
  2  4  1  0
  1  5  1  0
M  END
$$$$
