
     RDKit          3D

  5  4  0  0  0  0  0  0  0  0999 V2000
    3.6367   -2.6982   -3.0624 C   0  0  0  0  0  0  0  0  0  0  0  0
    3.2745   -3.6803   -4.1118 C   0  0  0  0  0  0  0  0  0  0  0  0
    2.4281   -4.5703   -3.7995 O   0  0  0  0  0  0  0  0  0  0  0  0
    3.7780   -3.6994   -5.3827 O   0  0  0  0  0  0  0  0  0  0  0  0
    4.9703   -2.3730   -3.2997 F   0  0  0  0  0  0  0  0  0  0  0  0
  1  2  1  0
  2  3  2  0
  2  4  1  0
  1  5  1  0
M  END
$$$$
