
     RDKit          3D

  5  4  0  0  0  0  0  0  0  0999 V2000
   -3.8483  -10.7604    8.4194 C   0  0  0  0  0  0  0  0  0  0  0  0
   -3.1499  -11.2099    9.6471 C   0  0  0  0  0  0  0  0  0  0  0  0
   -3.6794  -12.1619   10.2945 O   0  0  0  0  0  0  0  0  0  0  0  0
   -1.9855  -10.6818   10.1310 O   0  0  0  0  0  0  0  0  0  0  0  0
   -2.9935   -9.8381    7.8199 F   0  0  0  0  0  0  0  0  0  0  0  0
  1  2  1  0
  2  3  2  0
  2  4  1  0
  1  5  1  0
M  END
$$$$
