
     RDKit          3D

 29 28  0  0  0  0  0  0  0  0999 V2000
    6.3201    1.0156   -8.3681 C   0  0  0  0  0  0  0  0  0  0  0  0
    6.7261    0.8591   -9.8628 C   0  0  0  0  0  0  0  0  0  0  0  0
    5.9752    1.8423  -10.6922 C   0  0  0  0  0  0  0  0  0  0  0  0
    6.3426    1.9593  -12.1215 C   0  0  0  0  0  0  0  0  0  0  0  0
    5.4251    2.7053  -13.0195 C   0  0  0  0  0  0  0  0  0  0  0  0
    4.2675    2.0281  -13.3411 F   0  0  0  0  0  0  0  0  0  0  0  0
    5.1115    3.9751  -12.6013 F   0  0  0  0  0  0  0  0  0  0  0  0
    6.3183    2.8453  -14.5938 S   0  0  0  0  0  0  0  0  0  0  0  0
    5.4254    3.5992  -15.5409 O   0  0  0  0  0  0  0  0  0  0  0  0
    6.7375    1.5146  -15.0940 O   0  0  0  0  0  0  0  0  0  0  0  0
    7.6246    3.8774  -14.2859 O   0  0  0  0  0  0  0  0  0  0  0  0
    7.5962    2.5625  -12.2436 F   0  0  0  0  0  0  0  0  0  0  0  0
    6.5497    0.6478  -12.5822 F   0  0  0  0  0  0  0  0  0  0  0  0
    5.9528    3.1012  -10.0986 F   0  0  0  0  0  0  0  0  0  0  0  0
    4.6304    1.4274  -10.6776 F   0  0  0  0  0  0  0  0  0  0  0  0
    6.4744   -0.4097  -10.2691 F   0  0  0  0  0  0  0  0  0  0  0  0
    8.1018    1.1184   -9.9068 F   0  0  0  0  0  0  0  0  0  0  0  0
    7.0469   -0.0563   -7.6467 C   0  0  0  0  0  0  0  0  0  0  0  0
    6.7856   -0.2453   -6.2028 C   0  0  0  0  0  0  0  0  0  0  0  0
    7.2992   -1.4718   -5.5552 C   0  0  0  0  0  0  0  0  0  0  0  0
    7.0036   -2.6470   -6.1616 F   0  0  0  0  0  0  0  0  0  0  0  0
    6.8138   -1.5859   -4.2447 F   0  0  0  0  0  0  0  0  0  0  0  0
    8.6905   -1.3137   -5.4212 F   0  0  0  0  0  0  0  0  0  0  0  0
    5.3914   -0.2413   -5.9762 F   0  0  0  0  0  0  0  0  0  0  0  0
    7.2179    0.8626   -5.4479 F   0  0  0  0  0  0  0  0  0  0  0  0
    8.4260    0.1167   -7.8875 F   0  0  0  0  0  0  0  0  0  0  0  0
    6.7060   -1.2579   -8.3045 F   0  0  0  0  0  0  0  0  0  0  0  0
    6.6494    2.2927   -7.9634 F   0  0  0  0  0  0  0  0  0  0  0  0
    4.9701    0.8023   -8.2705 F   0  0  0  0  0  0  0  0  0  0  0  0
  1  2  1  0
  2  3  1  0
  3  4  1  0
  4  5  1  0
  5  6  1  0
  5  7  1  0
  5  8  1  0
  8  9  2  0
  8 10  2  0
  8 11  1  0
  4 12  1  0
  4 13  1  0
  3 14  1  0
  3 15  1  0
  2 16  1  0
  2 17  1  0
  1 18  1  0
 18 19  1  0
 19 20  1  0
 20 21  1  0
 20 22  1  0
 20 23  1  0
 19 24  1  0
 19 25  1  0
 18 26  1  0
 18 27  1  0
  1 28  1  0
  1 29  1  0
M  END
$$$$
