
     RDKit          3D

 29 28  0  0  0  0  0  0  0  0999 V2000
    7.3061   -0.4002   -8.0155 C   0  0  0  0  0  0  0  0  0  0  0  0
    6.6329    0.5531   -9.0458 C   0  0  0  0  0  0  0  0  0  0  0  0
    7.2523    0.3608  -10.3865 C   0  0  0  0  0  0  0  0  0  0  0  0
    6.5771    0.9767  -11.5510 C   0  0  0  0  0  0  0  0  0  0  0  0
    7.2685    0.9304  -12.8642 C   0  0  0  0  0  0  0  0  0  0  0  0
    8.4849    1.5798  -12.8906 F   0  0  0  0  0  0  0  0  0  0  0  0
    7.4086   -0.3260  -13.4007 F   0  0  0  0  0  0  0  0  0  0  0  0
    6.2164    1.8969  -13.9844 S   0  0  0  0  0  0  0  0  0  0  0  0
    4.9215    2.1508  -13.2625 O   0  0  0  0  0  0  0  0  0  0  0  0
    6.0528    1.2149  -15.2901 O   0  0  0  0  0  0  0  0  0  0  0  0
    6.9636    3.4103  -14.1182 O   0  0  0  0  0  0  0  0  0  0  0  0
    5.3239    0.3902  -11.7405 F   0  0  0  0  0  0  0  0  0  0  0  0
    6.2810    2.2993  -11.1789 F   0  0  0  0  0  0  0  0  0  0  0  0
    7.5160   -0.9822  -10.6406 F   0  0  0  0  0  0  0  0  0  0  0  0
    8.5249    0.9588  -10.3243 F   0  0  0  0  0  0  0  0  0  0  0  0
    6.7677    1.8364   -8.6294 F   0  0  0  0  0  0  0  0  0  0  0  0
    5.2805    0.1892   -9.0653 F   0  0  0  0  0  0  0  0  0  0  0  0
    6.5191   -0.2533   -6.7678 C   0  0  0  0  0  0  0  0  0  0  0  0
    6.6514   -1.2868   -5.7176 C   0  0  0  0  0  0  0  0  0  0  0  0
    5.7782   -1.1889   -4.5280 C   0  0  0  0  0  0  0  0  0  0  0  0
    5.8614   -2.2000   -3.6297 F   0  0  0  0  0  0  0  0  0  0  0  0
    4.4286   -1.1215   -4.9026 F   0  0  0  0  0  0  0  0  0  0  0  0
    6.0538    0.0476   -3.9168 F   0  0  0  0  0  0  0  0  0  0  0  0
    7.9762   -1.2878   -5.2278 F   0  0  0  0  0  0  0  0  0  0  0  0
    6.5243   -2.5854   -6.2487 F   0  0  0  0  0  0  0  0  0  0  0  0
    5.1666   -0.0741   -7.1265 F   0  0  0  0  0  0  0  0  0  0  0  0
    6.9181    0.9797   -6.2079 F   0  0  0  0  0  0  0  0  0  0  0  0
    7.2999   -1.6760   -8.5405 F   0  0  0  0  0  0  0  0  0  0  0  0
    8.5873    0.0382   -7.8057 F   0  0  0  0  0  0  0  0  0  0  0  0
  1  2  1  0
  2  3  1  0
  3  4  1  0
  4  5  1  0
  5  6  1  0
  5  7  1  0
  5  8  1  0
  8  9  2  0
  8 10  2  0
  8 11  1  0
  4 12  1  0
  4 13  1  0
  3 14  1  0
  3 15  1  0
  2 16  1  0
  2 17  1  0
  1 18  1  0
 18 19  1  0
 19 20  1  0
 20 21  1  0
 20 22  1  0
 20 23  1  0
 19 24  1  0
 19 25  1  0
 18 26  1  0
 18 27  1  0
  1 28  1  0
  1 29  1  0
M  END
$$$$
