
     RDKit          3D

 29 28  0  0  0  0  0  0  0  0999 V2000
    6.4629    0.3185   -7.9923 C   0  0  0  0  0  0  0  0  0  0  0  0
    7.2874   -0.2216   -9.1972 C   0  0  0  0  0  0  0  0  0  0  0  0
    6.8840    0.4913  -10.4410 C   0  0  0  0  0  0  0  0  0  0  0  0
    7.2492   -0.1250  -11.7365 C   0  0  0  0  0  0  0  0  0  0  0  0
    6.8489    0.5778  -12.9818 C   0  0  0  0  0  0  0  0  0  0  0  0
    5.4861    0.6601  -13.1763 F   0  0  0  0  0  0  0  0  0  0  0  0
    7.4114    1.8189  -13.1524 F   0  0  0  0  0  0  0  0  0  0  0  0
    7.4341   -0.4860  -14.3315 S   0  0  0  0  0  0  0  0  0  0  0  0
    6.6484   -1.7664  -14.2549 O   0  0  0  0  0  0  0  0  0  0  0  0
    8.9024   -0.6772  -14.2670 O   0  0  0  0  0  0  0  0  0  0  0  0
    6.9280    0.2702  -15.7593 O   0  0  0  0  0  0  0  0  0  0  0  0
    8.6327   -0.3020  -11.8070 F   0  0  0  0  0  0  0  0  0  0  0  0
    6.7398   -1.4345  -11.7058 F   0  0  0  0  0  0  0  0  0  0  0  0
    7.2790    1.8259  -10.4171 F   0  0  0  0  0  0  0  0  0  0  0  0
    5.4776    0.5452  -10.4282 F   0  0  0  0  0  0  0  0  0  0  0  0
    7.0887   -1.5574   -9.3184 F   0  0  0  0  0  0  0  0  0  0  0  0
    8.6267    0.0429   -8.8838 F   0  0  0  0  0  0  0  0  0  0  0  0
    6.8314   -0.5426   -6.8432 C   0  0  0  0  0  0  0  0  0  0  0  0
    6.0796   -0.3993   -5.5772 C   0  0  0  0  0  0  0  0  0  0  0  0
    6.0525   -1.5492   -4.6475 C   0  0  0  0  0  0  0  0  0  0  0  0
    7.1792   -1.7752   -3.9295 F   0  0  0  0  0  0  0  0  0  0  0  0
    5.7930   -2.7428   -5.3362 F   0  0  0  0  0  0  0  0  0  0  0  0
    4.9463   -1.3649   -3.7984 F   0  0  0  0  0  0  0  0  0  0  0  0
    4.7294   -0.1024   -5.8670 F   0  0  0  0  0  0  0  0  0  0  0  0
    6.4911    0.7382   -4.8553 F   0  0  0  0  0  0  0  0  0  0  0  0
    8.2172   -0.4004   -6.6214 F   0  0  0  0  0  0  0  0  0  0  0  0
    6.6646   -1.8704   -7.2924 F   0  0  0  0  0  0  0  0  0  0  0  0
    6.7725    1.6520   -7.8212 F   0  0  0  0  0  0  0  0  0  0  0  0
    5.1333    0.1563   -8.2811 F   0  0  0  0  0  0  0  0  0  0  0  0
  1  2  1  0
  2  3  1  0
  3  4  1  0
  4  5  1  0
  5  6  1  0
  5  7  1  0
  5  8  1  0
  8  9  2  0
  8 10  2  0
  8 11  1  0
  4 12  1  0
  4 13  1  0
  3 14  1  0
  3 15  1  0
  2 16  1  0
  2 17  1  0
  1 18  1  0
 18 19  1  0
 19 20  1  0
 20 21  1  0
 20 22  1  0
 20 23  1  0
 19 24  1  0
 19 25  1  0
 18 26  1  0
 18 27  1  0
  1 28  1  0
  1 29  1  0
M  END
$$$$
