
     RDKit          3D

 29 28  0  0  0  0  0  0  0  0999 V2000
    7.2327   -1.3184   -7.8774 C   0  0  0  0  0  0  0  0  0  0  0  0
    7.8638   -0.1983   -8.7551 C   0  0  0  0  0  0  0  0  0  0  0  0
    7.7372   -0.5579  -10.1948 C   0  0  0  0  0  0  0  0  0  0  0  0
    7.9251    0.5198  -11.1922 C   0  0  0  0  0  0  0  0  0  0  0  0
    7.6850    0.1980  -12.6217 C   0  0  0  0  0  0  0  0  0  0  0  0
    8.4798   -0.8133  -13.1191 F   0  0  0  0  0  0  0  0  0  0  0  0
    6.3738   -0.0481  -12.9473 F   0  0  0  0  0  0  0  0  0  0  0  0
    8.2137    1.6770  -13.5323 S   0  0  0  0  0  0  0  0  0  0  0  0
    7.8258    1.4702  -14.9708 O   0  0  0  0  0  0  0  0  0  0  0  0
    9.6577    1.9439  -13.3316 O   0  0  0  0  0  0  0  0  0  0  0  0
    7.2254    2.9330  -12.9736 O   0  0  0  0  0  0  0  0  0  0  0  0
    7.0995    1.6033  -10.8844 F   0  0  0  0  0  0  0  0  0  0  0  0
    9.2251    1.0156  -10.9942 F   0  0  0  0  0  0  0  0  0  0  0  0
    6.5532   -1.2446  -10.4486 F   0  0  0  0  0  0  0  0  0  0  0  0
    8.7486   -1.5006  -10.4580 F   0  0  0  0  0  0  0  0  0  0  0  0
    9.1645   -0.0324   -8.4098 F   0  0  0  0  0  0  0  0  0  0  0  0
    7.1335    0.9612   -8.4654 F   0  0  0  0  0  0  0  0  0  0  0  0
    7.0285   -0.7069   -6.5424 C   0  0  0  0  0  0  0  0  0  0  0  0
    6.0932   -1.3566   -5.5980 C   0  0  0  0  0  0  0  0  0  0  0  0
    6.0805   -0.8884   -4.1952 C   0  0  0  0  0  0  0  0  0  0  0  0
    5.0965   -1.3768   -3.4018 F   0  0  0  0  0  0  0  0  0  0  0  0
    5.9616    0.5074   -4.1350 F   0  0  0  0  0  0  0  0  0  0  0  0
    7.3473   -1.1746   -3.6551 F   0  0  0  0  0  0  0  0  0  0  0  0
    6.3714   -2.7403   -5.5430 F   0  0  0  0  0  0  0  0  0  0  0  0
    4.7698   -1.3331   -6.0798 F   0  0  0  0  0  0  0  0  0  0  0  0
    6.6861    0.6481   -6.7337 F   0  0  0  0  0  0  0  0  0  0  0  0
    8.3026   -0.6826   -5.9349 F   0  0  0  0  0  0  0  0  0  0  0  0
    6.0706   -1.7418   -8.4886 F   0  0  0  0  0  0  0  0  0  0  0  0
    8.1379   -2.3426   -7.7807 F   0  0  0  0  0  0  0  0  0  0  0  0
  1  2  1  0
  2  3  1  0
  3  4  1  0
  4  5  1  0
  5  6  1  0
  5  7  1  0
  5  8  1  0
  8  9  2  0
  8 10  2  0
  8 11  1  0
  4 12  1  0
  4 13  1  0
  3 14  1  0
  3 15  1  0
  2 16  1  0
  2 17  1  0
  1 18  1  0
 18 19  1  0
 19 20  1  0
 20 21  1  0
 20 22  1  0
 20 23  1  0
 19 24  1  0
 19 25  1  0
 18 26  1  0
 18 27  1  0
  1 28  1  0
  1 29  1  0
M  END
$$$$
