
     RDKit          3D

 29 28  0  0  0  0  0  0  0  0999 V2000
    6.0946    1.1505   -8.6996 C   0  0  0  0  0  0  0  0  0  0  0  0
    6.5123    1.0925  -10.1981 C   0  0  0  0  0  0  0  0  0  0  0  0
    5.6980    2.0610  -10.9837 C   0  0  0  0  0  0  0  0  0  0  0  0
    6.1500    2.3863  -12.3553 C   0  0  0  0  0  0  0  0  0  0  0  0
    5.2675    3.2311  -13.1995 C   0  0  0  0  0  0  0  0  0  0  0  0
    4.1788    2.5686  -13.7261 F   0  0  0  0  0  0  0  0  0  0  0  0
    4.8516    4.4008  -12.6123 F   0  0  0  0  0  0  0  0  0  0  0  0
    6.2750    3.6651  -14.6461 S   0  0  0  0  0  0  0  0  0  0  0  0
    5.4194    4.5239  -15.5366 O   0  0  0  0  0  0  0  0  0  0  0  0
    6.8087    2.4535  -15.3122 O   0  0  0  0  0  0  0  0  0  0  0  0
    7.4909    4.6891  -14.0634 O   0  0  0  0  0  0  0  0  0  0  0  0
    7.3894    3.0282  -12.3091 F   0  0  0  0  0  0  0  0  0  0  0  0
    6.4261    1.1578  -12.9795 F   0  0  0  0  0  0  0  0  0  0  0  0
    5.4615    3.2307  -10.2670 F   0  0  0  0  0  0  0  0  0  0  0  0
    4.4243    1.4801  -11.1304 F   0  0  0  0  0  0  0  0  0  0  0  0
    6.3474   -0.1697  -10.6648 F   0  0  0  0  0  0  0  0  0  0  0  0
    7.8674    1.4457  -10.2235 F   0  0  0  0  0  0  0  0  0  0  0  0
    6.8866    0.0931   -8.0271 C   0  0  0  0  0  0  0  0  0  0  0  0
    6.6445   -0.1727   -6.5920 C   0  0  0  0  0  0  0  0  0  0  0  0
    7.3157   -1.3371   -5.9749 C   0  0  0  0  0  0  0  0  0  0  0  0
    7.2150   -2.5157   -6.6360 F   0  0  0  0  0  0  0  0  0  0  0  0
    6.8155   -1.5780   -4.6873 F   0  0  0  0  0  0  0  0  0  0  0  0
    8.6637   -0.9822   -5.7869 F   0  0  0  0  0  0  0  0  0  0  0  0
    5.2613   -0.3642   -6.3795 F   0  0  0  0  0  0  0  0  0  0  0  0
    6.9179    0.9605   -5.8012 F   0  0  0  0  0  0  0  0  0  0  0  0
    8.2520    0.3568   -8.2641 F   0  0  0  0  0  0  0  0  0  0  0  0
    6.6130   -1.0971   -8.7352 F   0  0  0  0  0  0  0  0  0  0  0  0
    6.3415    2.4248   -8.2322 F   0  0  0  0  0  0  0  0  0  0  0  0
    4.7606    0.8478   -8.6188 F   0  0  0  0  0  0  0  0  0  0  0  0
  1  2  1  0
  2  3  1  0
  3  4  1  0
  4  5  1  0
  5  6  1  0
  5  7  1  0
  5  8  1  0
  8  9  2  0
  8 10  2  0
  8 11  1  0
  4 12  1  0
  4 13  1  0
  3 14  1  0
  3 15  1  0
  2 16  1  0
  2 17  1  0
  1 18  1  0
 18 19  1  0
 19 20  1  0
 20 21  1  0
 20 22  1  0
 20 23  1  0
 19 24  1  0
 19 25  1  0
 18 26  1  0
 18 27  1  0
  1 28  1  0
  1 29  1  0
M  END
$$$$
