
     RDKit          3D

 29 28  0  0  0  0  0  0  0  0999 V2000
    7.0106   -0.2709   -8.1358 C   0  0  0  0  0  0  0  0  0  0  0  0
    6.3102    0.8112   -9.0088 C   0  0  0  0  0  0  0  0  0  0  0  0
    6.8399    0.7537  -10.3996 C   0  0  0  0  0  0  0  0  0  0  0  0
    6.0892    1.4752  -11.4519 C   0  0  0  0  0  0  0  0  0  0  0  0
    6.6740    1.5271  -12.8158 C   0  0  0  0  0  0  0  0  0  0  0  0
    7.7887    2.3313  -12.9273 F   0  0  0  0  0  0  0  0  0  0  0  0
    6.9342    0.3029  -13.3810 F   0  0  0  0  0  0  0  0  0  0  0  0
    5.4185    2.3522  -13.8351 S   0  0  0  0  0  0  0  0  0  0  0  0
    6.0289    2.5734  -15.1919 O   0  0  0  0  0  0  0  0  0  0  0  0
    4.9299    3.5922  -13.1866 O   0  0  0  0  0  0  0  0  0  0  0  0
    4.1968    1.2039  -14.0706 O   0  0  0  0  0  0  0  0  0  0  0  0
    4.8120    0.9267  -11.5875 F   0  0  0  0  0  0  0  0  0  0  0  0
    5.8534    2.7668  -10.9505 F   0  0  0  0  0  0  0  0  0  0  0  0
    7.0865   -0.5566  -10.7997 F   0  0  0  0  0  0  0  0  0  0  0  0
    8.1137    1.3513  -10.3632 F   0  0  0  0  0  0  0  0  0  0  0  0
    6.5152    2.0350   -8.4624 F   0  0  0  0  0  0  0  0  0  0  0  0
    4.9470    0.4902   -8.9815 F   0  0  0  0  0  0  0  0  0  0  0  0
    6.3428   -0.2056   -6.8139 C   0  0  0  0  0  0  0  0  0  0  0  0
    6.5649   -1.3054   -5.8497 C   0  0  0  0  0  0  0  0  0  0  0  0
    5.7732   -1.3091   -4.6005 C   0  0  0  0  0  0  0  0  0  0  0  0
    5.4029   -2.5211   -4.1209 F   0  0  0  0  0  0  0  0  0  0  0  0
    4.5847   -0.5823   -4.7597 F   0  0  0  0  0  0  0  0  0  0  0  0
    6.5159   -0.5969   -3.6415 F   0  0  0  0  0  0  0  0  0  0  0  0
    7.9199   -1.3100   -5.4508 F   0  0  0  0  0  0  0  0  0  0  0  0
    6.4253   -2.5670   -6.4606 F   0  0  0  0  0  0  0  0  0  0  0  0
    4.9641   -0.0034   -7.0338 F   0  0  0  0  0  0  0  0  0  0  0  0
    6.7990    0.9882   -6.2144 F   0  0  0  0  0  0  0  0  0  0  0  0
    6.8837   -1.4877   -8.7734 F   0  0  0  0  0  0  0  0  0  0  0  0
    8.3288    0.0789   -8.0031 F   0  0  0  0  0  0  0  0  0  0  0  0
  1  2  1  0
  2  3  1  0
  3  4  1  0
  4  5  1  0
  5  6  1  0
  5  7  1  0
  5  8  1  0
  8  9  2  0
  8 10  2  0
  8 11  1  0
  4 12  1  0
  4 13  1  0
  3 14  1  0
  3 15  1  0
  2 16  1  0
  2 17  1  0
  1 18  1  0
 18 19  1  0
 19 20  1  0
 20 21  1  0
 20 22  1  0
 20 23  1  0
 19 24  1  0
 19 25  1  0
 18 26  1  0
 18 27  1  0
  1 28  1  0
  1 29  1  0
M  END
$$$$
