
     RDKit          3D

 29 28  0  0  0  0  0  0  0  0999 V2000
    6.6142    0.3229   -7.6297 C   0  0  0  0  0  0  0  0  0  0  0  0
    7.1074   -0.2269   -9.0001 C   0  0  0  0  0  0  0  0  0  0  0  0
    6.6101    0.6465  -10.0993 C   0  0  0  0  0  0  0  0  0  0  0  0
    6.9594    0.2707  -11.4879 C   0  0  0  0  0  0  0  0  0  0  0  0
    6.4805    1.1441  -12.5892 C   0  0  0  0  0  0  0  0  0  0  0  0
    5.1081    1.2386  -12.6853 F   0  0  0  0  0  0  0  0  0  0  0  0
    7.0286    2.4030  -12.6096 F   0  0  0  0  0  0  0  0  0  0  0  0
    6.9825    0.2966  -14.1142 S   0  0  0  0  0  0  0  0  0  0  0  0
    6.2079   -0.9913  -14.1774 O   0  0  0  0  0  0  0  0  0  0  0  0
    8.4527    0.1170  -14.1701 O   0  0  0  0  0  0  0  0  0  0  0  0
    6.3840    1.2468  -15.3812 O   0  0  0  0  0  0  0  0  0  0  0  0
    8.3466    0.1841  -11.6237 F   0  0  0  0  0  0  0  0  0  0  0  0
    6.5174   -1.0523  -11.6597 F   0  0  0  0  0  0  0  0  0  0  0  0
    6.9226    1.9837   -9.8717 F   0  0  0  0  0  0  0  0  0  0  0  0
    5.2048    0.6024  -10.0351 F   0  0  0  0  0  0  0  0  0  0  0  0
    6.6720   -1.5011   -9.1591 F   0  0  0  0  0  0  0  0  0  0  0  0
    8.5062   -0.1971   -8.9346 F   0  0  0  0  0  0  0  0  0  0  0  0
    6.8404   -0.7744   -6.6589 C   0  0  0  0  0  0  0  0  0  0  0  0
    6.3936   -0.5903   -5.2606 C   0  0  0  0  0  0  0  0  0  0  0  0
    5.8308   -1.7578   -4.5482 C   0  0  0  0  0  0  0  0  0  0  0  0
    6.6508   -2.8251   -4.3907 F   0  0  0  0  0  0  0  0  0  0  0  0
    4.6930   -2.2448   -5.2073 F   0  0  0  0  0  0  0  0  0  0  0  0
    5.3668   -1.2950   -3.3036 F   0  0  0  0  0  0  0  0  0  0  0  0
    5.3962    0.4089   -5.2170 F   0  0  0  0  0  0  0  0  0  0  0  0
    7.4114   -0.0369   -4.4593 F   0  0  0  0  0  0  0  0  0  0  0  0
    8.2070   -1.1208   -6.7063 F   0  0  0  0  0  0  0  0  0  0  0  0
    6.1582   -1.8939   -7.1826 F   0  0  0  0  0  0  0  0  0  0  0  0
    7.3157    1.4776   -7.3508 F   0  0  0  0  0  0  0  0  0  0  0  0
    5.2716    0.5767   -7.7326 F   0  0  0  0  0  0  0  0  0  0  0  0
  1  2  1  0
  2  3  1  0
  3  4  1  0
  4  5  1  0
  5  6  1  0
  5  7  1  0
  5  8  1  0
  8  9  2  0
  8 10  2  0
  8 11  1  0
  4 12  1  0
  4 13  1  0
  3 14  1  0
  3 15  1  0
  2 16  1  0
  2 17  1  0
  1 18  1  0
 18 19  1  0
 19 20  1  0
 20 21  1  0
 20 22  1  0
 20 23  1  0
 19 24  1  0
 19 25  1  0
 18 26  1  0
 18 27  1  0
  1 28  1  0
  1 29  1  0
M  END
$$$$
