
     RDKit          3D

 29 28  0  0  0  0  0  0  0  0999 V2000
    4.2654    5.4315  -12.4426 C   0  0  0  0  0  0  0  0  0  0  0  0
    4.2712    4.1180  -13.2780 C   0  0  0  0  0  0  0  0  0  0  0  0
    5.5438    4.0170  -14.0452 C   0  0  0  0  0  0  0  0  0  0  0  0
    5.7356    2.8281  -14.9061 C   0  0  0  0  0  0  0  0  0  0  0  0
    6.6433    2.9512  -16.0748 C   0  0  0  0  0  0  0  0  0  0  0  0
    6.1606    3.7512  -17.0890 F   0  0  0  0  0  0  0  0  0  0  0  0
    7.9301    3.3229  -15.7716 F   0  0  0  0  0  0  0  0  0  0  0  0
    6.7035    1.2885  -16.8012 S   0  0  0  0  0  0  0  0  0  0  0  0
    5.3063    0.9512  -17.2449 O   0  0  0  0  0  0  0  0  0  0  0  0
    7.2860    0.3089  -15.8536 O   0  0  0  0  0  0  0  0  0  0  0  0
    7.6045    1.4464  -18.2258 O   0  0  0  0  0  0  0  0  0  0  0  0
    6.2118    1.7593  -14.1436 F   0  0  0  0  0  0  0  0  0  0  0  0
    4.4508    2.4182  -15.3015 F   0  0  0  0  0  0  0  0  0  0  0  0
    6.6527    4.1975  -13.2233 F   0  0  0  0  0  0  0  0  0  0  0  0
    5.5714    5.1243  -14.9138 F   0  0  0  0  0  0  0  0  0  0  0  0
    3.2013    4.1071  -14.1108 F   0  0  0  0  0  0  0  0  0  0  0  0
    4.1693    3.0792  -12.3440 F   0  0  0  0  0  0  0  0  0  0  0  0
    2.8407    5.6930  -12.1268 C   0  0  0  0  0  0  0  0  0  0  0  0
    2.5079    6.8057  -11.2105 C   0  0  0  0  0  0  0  0  0  0  0  0
    1.0863    7.1845  -11.0598 C   0  0  0  0  0  0  0  0  0  0  0  0
    0.2382    6.2081  -10.6551 F   0  0  0  0  0  0  0  0  0  0  0  0
    0.5658    7.6644  -12.2701 F   0  0  0  0  0  0  0  0  0  0  0  0
    1.0443    8.2806  -10.1794 F   0  0  0  0  0  0  0  0  0  0  0  0
    3.1785    7.9749  -11.6330 F   0  0  0  0  0  0  0  0  0  0  0  0
    3.0445    6.5973   -9.9248 F   0  0  0  0  0  0  0  0  0  0  0  0
    2.2674    4.4852  -11.6767 F   0  0  0  0  0  0  0  0  0  0  0  0
    2.2175    5.9573  -13.3656 F   0  0  0  0  0  0  0  0  0  0  0  0
    5.0641    5.2410  -11.3340 F   0  0  0  0  0  0  0  0  0  0  0  0
    4.7539    6.4390  -13.2325 F   0  0  0  0  0  0  0  0  0  0  0  0
  1  2  1  0
  2  3  1  0
  3  4  1  0
  4  5  1  0
  5  6  1  0
  5  7  1  0
  5  8  1  0
  8  9  2  0
  8 10  2  0
  8 11  1  0
  4 12  1  0
  4 13  1  0
  3 14  1  0
  3 15  1  0
  2 16  1  0
  2 17  1  0
  1 18  1  0
 18 19  1  0
 19 20  1  0
 20 21  1  0
 20 22  1  0
 20 23  1  0
 19 24  1  0
 19 25  1  0
 18 26  1  0
 18 27  1  0
  1 28  1  0
  1 29  1  0
M  END
$$$$
