
     RDKit          3D

 29 28  0  0  0  0  0  0  0  0999 V2000
   -6.0577    6.1802    2.4067 C   0  0  0  0  0  0  0  0  0  0  0  0
   -7.1346    5.8694    3.4203 C   0  0  0  0  0  0  0  0  0  0  0  0
   -7.9569    7.1076    3.7201 C   0  0  0  0  0  0  0  0  0  0  0  0
   -9.1295    6.9535    4.5878 C   0  0  0  0  0  0  0  0  0  0  0  0
   -9.9213    8.1474    4.9753 C   0  0  0  0  0  0  0  0  0  0  0  0
   -9.1878    9.1085    5.6430 F   0  0  0  0  0  0  0  0  0  0  0  0
  -10.6247    8.7400    3.9633 F   0  0  0  0  0  0  0  0  0  0  0  0
  -11.2181    7.6062    6.1399 S   0  0  0  0  0  0  0  0  0  0  0  0
  -11.9292    6.4481    5.5034 O   0  0  0  0  0  0  0  0  0  0  0  0
  -10.5998    7.1637    7.4188 O   0  0  0  0  0  0  0  0  0  0  0  0
  -12.2930    8.8408    6.3700 O   0  0  0  0  0  0  0  0  0  0  0  0
  -10.0486    6.0177    4.0979 F   0  0  0  0  0  0  0  0  0  0  0  0
   -8.7026    6.3552    5.7961 F   0  0  0  0  0  0  0  0  0  0  0  0
   -8.3220    7.6901    2.4991 F   0  0  0  0  0  0  0  0  0  0  0  0
   -7.1214    8.0748    4.3064 F   0  0  0  0  0  0  0  0  0  0  0  0
   -6.5191    5.4364    4.5833 F   0  0  0  0  0  0  0  0  0  0  0  0
   -7.9708    4.8884    2.9785 F   0  0  0  0  0  0  0  0  0  0  0  0
   -5.0392    5.1643    2.1409 C   0  0  0  0  0  0  0  0  0  0  0  0
   -4.1411    5.2959    0.9687 C   0  0  0  0  0  0  0  0  0  0  0  0
   -3.2683    4.0211    0.8162 C   0  0  0  0  0  0  0  0  0  0  0  0
   -2.4455    3.8463    1.8893 F   0  0  0  0  0  0  0  0  0  0  0  0
   -2.5594    4.0919   -0.3660 F   0  0  0  0  0  0  0  0  0  0  0  0
   -4.0918    2.9153    0.7195 F   0  0  0  0  0  0  0  0  0  0  0  0
   -4.8012    5.4366   -0.2295 F   0  0  0  0  0  0  0  0  0  0  0  0
   -3.2075    6.3104    1.0395 F   0  0  0  0  0  0  0  0  0  0  0  0
   -4.3227    4.9250    3.3189 F   0  0  0  0  0  0  0  0  0  0  0  0
   -5.7384    3.9497    1.9477 F   0  0  0  0  0  0  0  0  0  0  0  0
   -5.4071    7.3766    2.7279 F   0  0  0  0  0  0  0  0  0  0  0  0
   -6.6849    6.4592    1.1820 F   0  0  0  0  0  0  0  0  0  0  0  0
  1  2  1  0
  2  3  1  0
  3  4  1  0
  4  5  1  0
  5  6  1  0
  5  7  1  0
  5  8  1  0
  8  9  2  0
  8 10  2  0
  8 11  1  0
  4 12  1  0
  4 13  1  0
  3 14  1  0
  3 15  1  0
  2 16  1  0
  2 17  1  0
  1 18  1  0
 18 19  1  0
 19 20  1  0
 20 21  1  0
 20 22  1  0
 20 23  1  0
 19 24  1  0
 19 25  1  0
 18 26  1  0
 18 27  1  0
  1 28  1  0
  1 29  1  0
M  END
$$$$
