
     RDKit          3D

 29 28  0  0  0  0  0  0  0  0999 V2000
    7.2135   17.9313   15.7861 C   0  0  0  0  0  0  0  0  0  0  0  0
    7.9949   18.4489   16.9715 C   0  0  0  0  0  0  0  0  0  0  0  0
    7.3014   19.6509   17.5825 C   0  0  0  0  0  0  0  0  0  0  0  0
    7.9258   20.2759   18.7534 C   0  0  0  0  0  0  0  0  0  0  0  0
    7.3296   21.5018   19.3401 C   0  0  0  0  0  0  0  0  0  0  0  0
    7.5640   22.6437   18.5994 F   0  0  0  0  0  0  0  0  0  0  0  0
    5.9970   21.4231   19.6368 F   0  0  0  0  0  0  0  0  0  0  0  0
    8.1147   21.7856   20.9630 S   0  0  0  0  0  0  0  0  0  0  0  0
    8.0395   20.4939   21.7231 O   0  0  0  0  0  0  0  0  0  0  0  0
    9.5408   22.1673   20.7775 O   0  0  0  0  0  0  0  0  0  0  0  0
    7.2682   22.9454   21.7821 O   0  0  0  0  0  0  0  0  0  0  0  0
    8.1048   19.3818   19.8159 F   0  0  0  0  0  0  0  0  0  0  0  0
    9.2568   20.6106   18.4115 F   0  0  0  0  0  0  0  0  0  0  0  0
    5.9779   19.2883   17.8662 F   0  0  0  0  0  0  0  0  0  0  0  0
    7.1637   20.6438   16.5963 F   0  0  0  0  0  0  0  0  0  0  0  0
    9.2526   18.8232   16.5278 F   0  0  0  0  0  0  0  0  0  0  0  0
    8.1382   17.4941   17.9330 F   0  0  0  0  0  0  0  0  0  0  0  0
    7.6736   16.7066   15.1314 C   0  0  0  0  0  0  0  0  0  0  0  0
    6.7949   15.9982   14.1701 C   0  0  0  0  0  0  0  0  0  0  0  0
    7.4994   14.7200   13.6412 C   0  0  0  0  0  0  0  0  0  0  0  0
    8.6117   15.0257   12.9143 F   0  0  0  0  0  0  0  0  0  0  0  0
    6.5993   13.9722   12.9092 F   0  0  0  0  0  0  0  0  0  0  0  0
    7.8862   13.9376   14.7129 F   0  0  0  0  0  0  0  0  0  0  0  0
    5.6061   15.5673   14.7108 F   0  0  0  0  0  0  0  0  0  0  0  0
    6.4887   16.6900   13.0154 F   0  0  0  0  0  0  0  0  0  0  0  0
    8.9488   16.9308   14.6003 F   0  0  0  0  0  0  0  0  0  0  0  0
    7.9254   15.7785   16.1691 F   0  0  0  0  0  0  0  0  0  0  0  0
    7.0811   18.9246   14.8095 F   0  0  0  0  0  0  0  0  0  0  0  0
    5.8946   17.6982   16.2068 F   0  0  0  0  0  0  0  0  0  0  0  0
  1  2  1  0
  2  3  1  0
  3  4  1  0
  4  5  1  0
  5  6  1  0
  5  7  1  0
  5  8  1  0
  8  9  2  0
  8 10  2  0
  8 11  1  0
  4 12  1  0
  4 13  1  0
  3 14  1  0
  3 15  1  0
  2 16  1  0
  2 17  1  0
  1 18  1  0
 18 19  1  0
 19 20  1  0
 20 21  1  0
 20 22  1  0
 20 23  1  0
 19 24  1  0
 19 25  1  0
 18 26  1  0
 18 27  1  0
  1 28  1  0
  1 29  1  0
M  END
$$$$
