
     RDKit          3D

 29 28  0  0  0  0  0  0  0  0999 V2000
   -6.2235    5.6515    1.8318 C   0  0  0  0  0  0  0  0  0  0  0  0
   -7.1642    5.4634    2.9994 C   0  0  0  0  0  0  0  0  0  0  0  0
   -8.4055    6.3167    2.8258 C   0  0  0  0  0  0  0  0  0  0  0  0
   -9.3758    6.3403    3.9256 C   0  0  0  0  0  0  0  0  0  0  0  0
  -10.5009    7.3077    3.8951 C   0  0  0  0  0  0  0  0  0  0  0  0
  -10.1938    8.5354    4.4481 F   0  0  0  0  0  0  0  0  0  0  0  0
  -11.0798    7.4974    2.6708 F   0  0  0  0  0  0  0  0  0  0  0  0
  -11.8555    6.6244    4.9094 S   0  0  0  0  0  0  0  0  0  0  0  0
  -11.2752    6.2825    6.2504 O   0  0  0  0  0  0  0  0  0  0  0  0
  -12.9263    7.6434    5.0797 O   0  0  0  0  0  0  0  0  0  0  0  0
  -12.4253    5.2449    4.1988 O   0  0  0  0  0  0  0  0  0  0  0  0
   -9.9463    5.0859    4.1738 F   0  0  0  0  0  0  0  0  0  0  0  0
   -8.6702    6.5950    5.1246 F   0  0  0  0  0  0  0  0  0  0  0  0
   -9.0278    5.9361    1.6294 F   0  0  0  0  0  0  0  0  0  0  0  0
   -8.0117    7.6442    2.5811 F   0  0  0  0  0  0  0  0  0  0  0  0
   -6.5014    5.8497    4.1528 F   0  0  0  0  0  0  0  0  0  0  0  0
   -7.5459    4.1620    3.1311 F   0  0  0  0  0  0  0  0  0  0  0  0
   -5.4160    4.5109    1.3991 C   0  0  0  0  0  0  0  0  0  0  0  0
   -4.4176    4.6712    0.3148 C   0  0  0  0  0  0  0  0  0  0  0  0
   -2.9872    4.7579    0.9116 C   0  0  0  0  0  0  0  0  0  0  0  0
   -2.0332    4.6301   -0.0540 F   0  0  0  0  0  0  0  0  0  0  0  0
   -2.8461    3.8044    1.8997 F   0  0  0  0  0  0  0  0  0  0  0  0
   -2.8225    5.9877    1.5206 F   0  0  0  0  0  0  0  0  0  0  0  0
   -4.3835    3.6226   -0.5744 F   0  0  0  0  0  0  0  0  0  0  0  0
   -4.5199    5.8303   -0.4281 F   0  0  0  0  0  0  0  0  0  0  0  0
   -4.8617    3.8966    2.5277 F   0  0  0  0  0  0  0  0  0  0  0  0
   -6.3306    3.5385    0.9308 F   0  0  0  0  0  0  0  0  0  0  0  0
   -5.3650    6.7330    2.0580 F   0  0  0  0  0  0  0  0  0  0  0  0
   -6.9855    6.0555    0.7241 F   0  0  0  0  0  0  0  0  0  0  0  0
  1  2  1  0
  2  3  1  0
  3  4  1  0
  4  5  1  0
  5  6  1  0
  5  7  1  0
  5  8  1  0
  8  9  2  0
  8 10  2  0
  8 11  1  0
  4 12  1  0
  4 13  1  0
  3 14  1  0
  3 15  1  0
  2 16  1  0
  2 17  1  0
  1 18  1  0
 18 19  1  0
 19 20  1  0
 20 21  1  0
 20 22  1  0
 20 23  1  0
 19 24  1  0
 19 25  1  0
 18 26  1  0
 18 27  1  0
  1 28  1  0
  1 29  1  0
M  END
$$$$
