
     RDKit          3D

 29 28  0  0  0  0  0  0  0  0999 V2000
    3.0174  -11.5967    4.1490 C   0  0  0  0  0  0  0  0  0  0  0  0
    4.2909  -11.9216    4.8499 C   0  0  0  0  0  0  0  0  0  0  0  0
    4.3784  -13.3483    5.2847 C   0  0  0  0  0  0  0  0  0  0  0  0
    5.6806  -14.0270    5.3648 C   0  0  0  0  0  0  0  0  0  0  0  0
    5.6906  -15.5040    5.5497 C   0  0  0  0  0  0  0  0  0  0  0  0
    4.8019  -16.1362    4.6627 F   0  0  0  0  0  0  0  0  0  0  0  0
    5.4299  -16.0049    6.7688 F   0  0  0  0  0  0  0  0  0  0  0  0
    7.3438  -16.0549    5.0845 S   0  0  0  0  0  0  0  0  0  0  0  0
    8.3784  -15.2983    5.8679 O   0  0  0  0  0  0  0  0  0  0  0  0
    7.5168  -17.5035    5.3539 O   0  0  0  0  0  0  0  0  0  0  0  0
    7.5991  -15.6948    3.4529 O   0  0  0  0  0  0  0  0  0  0  0  0
    6.2415  -13.8654    4.0433 F   0  0  0  0  0  0  0  0  0  0  0  0
    6.6156  -13.4197    6.1643 F   0  0  0  0  0  0  0  0  0  0  0  0
    3.7199  -13.4865    6.5215 F   0  0  0  0  0  0  0  0  0  0  0  0
    3.5797  -14.1563    4.4327 F   0  0  0  0  0  0  0  0  0  0  0  0
    5.3750  -11.5753    4.0428 F   0  0  0  0  0  0  0  0  0  0  0  0
    4.4039  -11.1277    6.0114 F   0  0  0  0  0  0  0  0  0  0  0  0
    2.9918  -10.3425    3.3517 C   0  0  0  0  0  0  0  0  0  0  0  0
    1.8528  -10.0480    2.4698 C   0  0  0  0  0  0  0  0  0  0  0  0
    1.7372   -8.6629    1.9229 C   0  0  0  0  0  0  0  0  0  0  0  0
    3.0604   -8.2457    1.6808 F   0  0  0  0  0  0  0  0  0  0  0  0
    1.1967   -7.7156    2.7172 F   0  0  0  0  0  0  0  0  0  0  0  0
    1.0811   -8.7256    0.6918 F   0  0  0  0  0  0  0  0  0  0  0  0
    1.6241  -10.9734    1.4610 F   0  0  0  0  0  0  0  0  0  0  0  0
    0.6992  -10.1772    3.3023 F   0  0  0  0  0  0  0  0  0  0  0  0
    4.1363  -10.3878    2.5264 F   0  0  0  0  0  0  0  0  0  0  0  0
    3.2439   -9.2306    4.1763 F   0  0  0  0  0  0  0  0  0  0  0  0
    2.0137  -11.6532    5.1009 F   0  0  0  0  0  0  0  0  0  0  0  0
    2.7119  -12.6552    3.2727 F   0  0  0  0  0  0  0  0  0  0  0  0
  1  2  1  0
  2  3  1  0
  3  4  1  0
  4  5  1  0
  5  6  1  0
  5  7  1  0
  5  8  1  0
  8  9  2  0
  8 10  2  0
  8 11  1  0
  4 12  1  0
  4 13  1  0
  3 14  1  0
  3 15  1  0
  2 16  1  0
  2 17  1  0
  1 18  1  0
 18 19  1  0
 19 20  1  0
 20 21  1  0
 20 22  1  0
 20 23  1  0
 19 24  1  0
 19 25  1  0
 18 26  1  0
 18 27  1  0
  1 28  1  0
  1 29  1  0
M  END
$$$$
