
     RDKit          3D

 29 28  0  0  0  0  0  0  0  0999 V2000
    4.0057  -12.0218    4.6897 C   0  0  0  0  0  0  0  0  0  0  0  0
    4.0644  -13.5100    4.6704 C   0  0  0  0  0  0  0  0  0  0  0  0
    5.3823  -14.0550    5.1157 C   0  0  0  0  0  0  0  0  0  0  0  0
    5.8432  -15.3713    4.6495 C   0  0  0  0  0  0  0  0  0  0  0  0
    7.2749  -15.7246    4.8526 C   0  0  0  0  0  0  0  0  0  0  0  0
    7.6213  -15.6920    6.2146 F   0  0  0  0  0  0  0  0  0  0  0  0
    8.2142  -15.0147    4.2054 F   0  0  0  0  0  0  0  0  0  0  0  0
    7.4448  -17.4426    4.3305 S   0  0  0  0  0  0  0  0  0  0  0  0
    7.3652  -17.5364    2.8334 O   0  0  0  0  0  0  0  0  0  0  0  0
    8.7461  -18.0049    4.7682 O   0  0  0  0  0  0  0  0  0  0  0  0
    6.1475  -18.3313    4.9505 O   0  0  0  0  0  0  0  0  0  0  0  0
    5.1569  -16.3073    5.5097 F   0  0  0  0  0  0  0  0  0  0  0  0
    5.4127  -15.7401    3.4002 F   0  0  0  0  0  0  0  0  0  0  0  0
    6.3826  -13.1028    4.8414 F   0  0  0  0  0  0  0  0  0  0  0  0
    5.4169  -14.1197    6.5339 F   0  0  0  0  0  0  0  0  0  0  0  0
    3.0208  -14.0330    5.4347 F   0  0  0  0  0  0  0  0  0  0  0  0
    3.8494  -13.9720    3.3542 F   0  0  0  0  0  0  0  0  0  0  0  0
    3.1535  -11.3709    3.6603 C   0  0  0  0  0  0  0  0  0  0  0  0
    3.1787   -9.9104    3.4928 C   0  0  0  0  0  0  0  0  0  0  0  0
    2.1528   -9.2956    2.5981 C   0  0  0  0  0  0  0  0  0  0  0  0
    2.5961   -7.9780    2.3723 F   0  0  0  0  0  0  0  0  0  0  0  0
    0.8941   -9.1800    3.0700 F   0  0  0  0  0  0  0  0  0  0  0  0
    2.1744   -9.9653    1.3729 F   0  0  0  0  0  0  0  0  0  0  0  0
    3.2806   -9.1766    4.6665 F   0  0  0  0  0  0  0  0  0  0  0  0
    4.4121   -9.6372    2.8260 F   0  0  0  0  0  0  0  0  0  0  0  0
    1.8240  -11.7137    3.9888 F   0  0  0  0  0  0  0  0  0  0  0  0
    3.3362  -11.9879    2.4090 F   0  0  0  0  0  0  0  0  0  0  0  0
    5.3149  -11.5718    4.6715 F   0  0  0  0  0  0  0  0  0  0  0  0
    3.5257  -11.6140    5.9485 F   0  0  0  0  0  0  0  0  0  0  0  0
  1  2  1  0
  2  3  1  0
  3  4  1  0
  4  5  1  0
  5  6  1  0
  5  7  1  0
  5  8  1  0
  8  9  2  0
  8 10  2  0
  8 11  1  0
  4 12  1  0
  4 13  1  0
  3 14  1  0
  3 15  1  0
  2 16  1  0
  2 17  1  0
  1 18  1  0
 18 19  1  0
 19 20  1  0
 20 21  1  0
 20 22  1  0
 20 23  1  0
 19 24  1  0
 19 25  1  0
 18 26  1  0
 18 27  1  0
  1 28  1  0
  1 29  1  0
M  END
$$$$
