
     RDKit          3D

 29 28  0  0  0  0  0  0  0  0999 V2000
    3.0623  -10.8769    2.8242 C   0  0  0  0  0  0  0  0  0  0  0  0
    3.2895  -11.4544    4.1782 C   0  0  0  0  0  0  0  0  0  0  0  0
    4.0097  -12.7631    4.1489 C   0  0  0  0  0  0  0  0  0  0  0  0
    4.4049  -13.4273    5.4000 C   0  0  0  0  0  0  0  0  0  0  0  0
    5.3670  -14.5602    5.3181 C   0  0  0  0  0  0  0  0  0  0  0  0
    6.4809  -14.2288    4.5273 F   0  0  0  0  0  0  0  0  0  0  0  0
    4.9282  -15.7504    4.8753 F   0  0  0  0  0  0  0  0  0  0  0  0
    5.9927  -14.8068    6.9917 S   0  0  0  0  0  0  0  0  0  0  0  0
    6.9677  -15.9493    7.0140 O   0  0  0  0  0  0  0  0  0  0  0  0
    6.6830  -13.5901    7.4857 O   0  0  0  0  0  0  0  0  0  0  0  0
    4.7041  -15.2377    7.9971 O   0  0  0  0  0  0  0  0  0  0  0  0
    5.1573  -12.4184    6.1093 F   0  0  0  0  0  0  0  0  0  0  0  0
    3.3817  -13.7061    6.2702 F   0  0  0  0  0  0  0  0  0  0  0  0
    3.2676  -13.6715    3.3700 F   0  0  0  0  0  0  0  0  0  0  0  0
    5.2047  -12.6329    3.3929 F   0  0  0  0  0  0  0  0  0  0  0  0
    3.9610  -10.5297    4.9787 F   0  0  0  0  0  0  0  0  0  0  0  0
    2.0465  -11.6805    4.8075 F   0  0  0  0  0  0  0  0  0  0  0  0
    2.5770   -9.4731    2.7667 C   0  0  0  0  0  0  0  0  0  0  0  0
    2.3446   -8.8219    1.4691 C   0  0  0  0  0  0  0  0  0  0  0  0
    1.8864   -7.4002    1.4770 C   0  0  0  0  0  0  0  0  0  0  0  0
    1.2138   -7.2182    0.2531 F   0  0  0  0  0  0  0  0  0  0  0  0
    2.8285   -6.4354    1.5213 F   0  0  0  0  0  0  0  0  0  0  0  0
    0.9511   -7.2416    2.5018 F   0  0  0  0  0  0  0  0  0  0  0  0
    3.3529   -8.9865    0.5295 F   0  0  0  0  0  0  0  0  0  0  0  0
    1.2422   -9.5263    0.8954 F   0  0  0  0  0  0  0  0  0  0  0  0
    3.5529   -8.7010    3.4334 F   0  0  0  0  0  0  0  0  0  0  0  0
    1.4404   -9.3121    3.5803 F   0  0  0  0  0  0  0  0  0  0  0  0
    2.2403  -11.7616    2.1472 F   0  0  0  0  0  0  0  0  0  0  0  0
    4.2750  -10.9294    2.1114 F   0  0  0  0  0  0  0  0  0  0  0  0
  1  2  1  0
  2  3  1  0
  3  4  1  0
  4  5  1  0
  5  6  1  0
  5  7  1  0
  5  8  1  0
  8  9  2  0
  8 10  2  0
  8 11  1  0
  4 12  1  0
  4 13  1  0
  3 14  1  0
  3 15  1  0
  2 16  1  0
  2 17  1  0
  1 18  1  0
 18 19  1  0
 19 20  1  0
 20 21  1  0
 20 22  1  0
 20 23  1  0
 19 24  1  0
 19 25  1  0
 18 26  1  0
 18 27  1  0
  1 28  1  0
  1 29  1  0
M  END
$$$$
