
     RDKit          3D

 29 28  0  0  0  0  0  0  0  0999 V2000
    2.8431   -6.9538    1.6380 C   0  0  0  0  0  0  0  0  0  0  0  0
    3.6203   -8.1404    2.0926 C   0  0  0  0  0  0  0  0  0  0  0  0
    2.7721   -9.1950    2.7253 C   0  0  0  0  0  0  0  0  0  0  0  0
    3.3668  -10.1893    3.6310 C   0  0  0  0  0  0  0  0  0  0  0  0
    2.5333  -11.3537    4.0376 C   0  0  0  0  0  0  0  0  0  0  0  0
    1.8578  -11.9082    2.9365 F   0  0  0  0  0  0  0  0  0  0  0  0
    1.6126  -11.1847    5.0014 F   0  0  0  0  0  0  0  0  0  0  0  0
    3.6855  -12.6176    4.6105 S   0  0  0  0  0  0  0  0  0  0  0  0
    4.9001  -12.6458    3.7272 O   0  0  0  0  0  0  0  0  0  0  0  0
    4.1225  -12.3469    6.0022 O   0  0  0  0  0  0  0  0  0  0  0  0
    2.9439  -14.1308    4.4787 O   0  0  0  0  0  0  0  0  0  0  0  0
    4.4101  -10.8020    2.8416 F   0  0  0  0  0  0  0  0  0  0  0  0
    4.0595   -9.6770    4.6986 F   0  0  0  0  0  0  0  0  0  0  0  0
    1.6921   -8.5746    3.3820 F   0  0  0  0  0  0  0  0  0  0  0  0
    2.1126   -9.9455    1.7162 F   0  0  0  0  0  0  0  0  0  0  0  0
    4.3548   -8.6598    1.0261 F   0  0  0  0  0  0  0  0  0  0  0  0
    4.5694   -7.7393    3.0572 F   0  0  0  0  0  0  0  0  0  0  0  0
    3.5399   -6.0022    0.7334 C   0  0  0  0  0  0  0  0  0  0  0  0
    2.7978   -4.9006    0.1030 C   0  0  0  0  0  0  0  0  0  0  0  0
    3.5882   -3.8107   -0.5439 C   0  0  0  0  0  0  0  0  0  0  0  0
    4.4366   -3.3156    0.4653 F   0  0  0  0  0  0  0  0  0  0  0  0
    2.9161   -2.7386   -1.0124 F   0  0  0  0  0  0  0  0  0  0  0  0
    4.3938   -4.3755   -1.5349 F   0  0  0  0  0  0  0  0  0  0  0  0
    1.7541   -5.2826   -0.7284 F   0  0  0  0  0  0  0  0  0  0  0  0
    2.1342   -4.2389    1.1811 F   0  0  0  0  0  0  0  0  0  0  0  0
    4.0648   -6.7849   -0.3178 F   0  0  0  0  0  0  0  0  0  0  0  0
    4.6962   -5.4926    1.3523 F   0  0  0  0  0  0  0  0  0  0  0  0
    2.3398   -6.3480    2.7766 F   0  0  0  0  0  0  0  0  0  0  0  0
    1.6954   -7.4089    0.9620 F   0  0  0  0  0  0  0  0  0  0  0  0
  1  2  1  0
  2  3  1  0
  3  4  1  0
  4  5  1  0
  5  6  1  0
  5  7  1  0
  5  8  1  0
  8  9  2  0
  8 10  2  0
  8 11  1  0
  4 12  1  0
  4 13  1  0
  3 14  1  0
  3 15  1  0
  2 16  1  0
  2 17  1  0
  1 18  1  0
 18 19  1  0
 19 20  1  0
 20 21  1  0
 20 22  1  0
 20 23  1  0
 19 24  1  0
 19 25  1  0
 18 26  1  0
 18 27  1  0
  1 28  1  0
  1 29  1  0
M  END
$$$$
