
     RDKit          3D

 26 28  0  0  0  0  0  0  0  0999 V2000
    7.4030  -45.0678    5.3614 C   0  0  0  0  0  0  0  0  0  0  0  0
    7.4686  -45.7221    3.9980 C   0  0  0  0  0  0  0  0  0  0  0  0
    8.6011  -46.6798    4.0022 C   0  0  0  0  0  0  0  0  0  0  0  0
    8.3117  -48.1273    3.7601 C   0  0  0  0  0  0  0  0  0  0  0  0
    9.3192  -47.9764    2.6777 C   0  0  0  0  0  0  0  0  0  0  0  0
   10.1506  -48.7149    2.0530 O   0  0  0  0  0  0  0  0  0  0  0  0
    8.9940  -46.5972    2.5824 N   0  0  0  0  0  0  0  0  0  0  0  0
    8.7684  -45.2245    2.1503 C   0  0  0  0  0  0  0  0  0  0  0  0
    7.8800  -44.6557    2.9477 C   0  0  0  0  0  0  0  0  0  0  0  0
    7.1498  -43.0788    3.0297 S   0  0  0  0  0  0  0  0  0  0  0  0
    5.6993  -42.6095    2.2226 C   0  0  0  0  0  0  0  0  0  0  0  0
    5.1746  -41.2510    2.8426 C   0  0  0  0  0  0  0  0  0  0  0  0
    4.3186  -40.7467    1.7172 C   0  0  0  0  0  0  0  0  0  0  0  0
    4.6362  -41.5163    0.5286 N   0  0  0  0  0  0  0  0  0  0  0  0
    5.9415  -42.0325    0.8172 C   0  0  0  0  0  0  0  0  0  0  0  0
    2.8756  -40.8212    1.9501 C   0  0  0  0  0  0  0  0  0  0  0  0
    2.0569  -41.4542    1.2311 O   0  0  0  0  0  0  0  0  0  0  0  0
    2.3067  -40.1294    3.0808 N   0  0  0  0  0  0  0  0  0  0  0  0
    0.8483  -40.0572    3.2235 C   0  0  0  0  0  0  0  0  0  0  0  0
    3.1514  -39.4997    4.0846 C   0  0  0  0  0  0  0  0  0  0  0  0
    9.4664  -44.7068    0.9887 C   0  0  0  0  0  0  0  0  0  0  0  0
    9.4281  -43.4381    0.7558 O   0  0  0  0  0  0  0  0  0  0  0  0
   10.1892  -45.4130    0.0724 O   0  0  0  0  0  0  0  0  0  0  0  0
    8.6829  -48.9922    4.9155 C   0  0  0  0  0  0  0  0  0  0  0  0
    8.4616  -50.4586    4.6431 C   0  0  0  0  0  0  0  0  0  0  0  0
    7.8862  -48.6118    6.0075 O   0  0  0  0  0  0  0  0  0  0  0  0
  1  2  1  0
  2  3  1  0
  3  4  1  0
  4  5  1  0
  5  6  2  0
  5  7  1  0
  7  8  1  0
  8  9  2  0
  9 10  1  0
 10 11  1  0
 11 12  1  0
 12 13  1  0
 13 14  1  0
 14 15  1  0
 13 16  1  0
 16 17  2  0
 16 18  1  0
 18 19  1  0
 18 20  1  0
  8 21  1  0
 21 22  2  0
 21 23  1  0
  4 24  1  0
 24 25  1  0
 24 26  1  0
  9  2  1  0
  7  3  1  0
 15 11  1  0
M  END
$$$$
