
     RDKit          3D

  4  3  0  0  0  0  0  0  0  0999 V2000
    9.1110    3.5720    1.5264 C   0  0  0  0  0  0  0  0  0  0  0  0
    8.5290    4.6073    2.4696 C   0  0  0  0  0  0  0  0  0  0  0  0
    9.8665    5.2126    3.4944 Cl  0  0  0  0  0  0  0  0  0  0  0  0
    7.8634    2.8634    0.4803 Cl  0  0  0  0  0  0  0  0  0  0  0  0
  1  2  1  0
  2  3  1  0
  1  4  1  0
M  END
$$$$
