
     RDKit          3D

  4  3  0  0  0  0  0  0  0  0999 V2000
    9.6374  -11.3731   -9.0246 C   0  0  0  0  0  0  0  0  0  0  0  0
    9.8052  -11.4220   -7.5180 C   0  0  0  0  0  0  0  0  0  0  0  0
   11.2803  -12.3758   -7.1723 Cl  0  0  0  0  0  0  0  0  0  0  0  0
    8.8047   -9.8933   -9.5438 Cl  0  0  0  0  0  0  0  0  0  0  0  0
  1  2  1  0
  2  3  1  0
  1  4  1  0
M  END
$$$$
