
     RDKit          3D

  4  3  0  0  0  0  0  0  0  0999 V2000
   -0.2155   -6.5843  -10.6886 C   0  0  0  0  0  0  0  0  0  0  0  0
   -0.0733   -5.0900  -10.9057 C   0  0  0  0  0  0  0  0  0  0  0  0
   -1.6543   -4.3393  -10.5288 Cl  0  0  0  0  0  0  0  0  0  0  0  0
    1.3659   -7.3848  -10.5827 Cl  0  0  0  0  0  0  0  0  0  0  0  0
  1  2  1  0
  2  3  1  0
  1  4  1  0
M  END
$$$$
