
     RDKit          3D

  4  3  0  0  0  0  0  0  0  0999 V2000
    0.0224  -10.7985  -15.8057 C   0  0  0  0  0  0  0  0  0  0  0  0
    0.7397  -11.9331  -16.5116 C   0  0  0  0  0  0  0  0  0  0  0  0
   -0.2341  -13.4162  -16.2717 Cl  0  0  0  0  0  0  0  0  0  0  0  0
    0.7854   -9.2307  -16.1419 Cl  0  0  0  0  0  0  0  0  0  0  0  0
  1  2  1  0
  2  3  1  0
  1  4  1  0
M  END
$$$$
