
     RDKit          3D

  4  3  0  0  0  0  0  0  0  0999 V2000
   13.5283    2.1681   -2.9277 C   0  0  0  0  0  0  0  0  0  0  0  0
   14.6883    2.8703   -3.6072 C   0  0  0  0  0  0  0  0  0  0  0  0
   14.4313    2.7452   -5.3745 Cl  0  0  0  0  0  0  0  0  0  0  0  0
   13.6524    2.2589   -1.1587 Cl  0  0  0  0  0  0  0  0  0  0  0  0
  1  2  1  0
  2  3  1  0
  1  4  1  0
M  END
$$$$
