
     RDKit          3D

  4  3  0  0  0  0  0  0  0  0999 V2000
   11.0664    2.7491   -3.1896 C   0  0  0  0  0  0  0  0  0  0  0  0
   10.5137    2.1884   -1.8932 C   0  0  0  0  0  0  0  0  0  0  0  0
    8.7279    2.2054   -2.0186 Cl  0  0  0  0  0  0  0  0  0  0  0  0
   12.8407    2.6899   -3.2258 Cl  0  0  0  0  0  0  0  0  0  0  0  0
  1  2  1  0
  2  3  1  0
  1  4  1  0
M  END
$$$$
