
     RDKit          3D

  4  3  0  0  0  0  0  0  0  0999 V2000
   -5.5119    6.2101    5.1561 C   0  0  0  0  0  0  0  0  0  0  0  0
   -5.6446    5.3245    6.3803 C   0  0  0  0  0  0  0  0  0  0  0  0
   -5.6518    3.6255    5.8160 Cl  0  0  0  0  0  0  0  0  0  0  0  0
   -5.5066    7.9320    5.5901 Cl  0  0  0  0  0  0  0  0  0  0  0  0
  1  2  1  0
  2  3  1  0
  1  4  1  0
M  END
$$$$
