
     RDKit          3D

 13 13  0  0  0  0  0  0  0  0999 V2000
   15.4959  -31.7761   20.5691 C   0  0  0  0  0  0  0  0  0  0  0  0
   15.7840  -30.4219   21.1358 C   0  0  0  0  0  0  0  0  0  0  0  0
   16.6792  -30.3630   22.0200 O   0  0  0  0  0  0  0  0  0  0  0  0
   15.0676  -29.2796   20.6793 N   0  0  0  0  0  0  0  0  0  0  0  0
   15.3448  -27.9782   21.2786 C   0  0  0  0  0  0  0  0  0  0  0  0
   15.0727  -26.8674   21.2930 N   0  0  0  0  0  0  0  0  0  0  0  0
   15.6006  -25.9473   22.0410 N   0  0  0  0  0  0  0  0  0  0  0  0
   16.4477  -26.1054   22.8287 C   0  0  0  0  0  0  0  0  0  0  0  0
   16.7221  -27.9775   22.6245 S   0  0  0  0  0  0  0  0  0  0  0  0
   17.4593  -25.3221   24.0174 S   0  0  0  0  0  0  0  0  0  0  0  0
   18.1895  -24.1346   23.4482 O   0  0  0  0  0  0  0  0  0  0  0  0
   18.4722  -26.3000   24.5384 O   0  0  0  0  0  0  0  0  0  0  0  0
   16.5603  -24.7344   25.3682 N   0  0  0  0  0  0  0  0  0  0  0  0
  1  2  1  0
  2  3  2  0
  2  4  1  0
  4  5  1  0
  5  6  2  0
  6  7  1  0
  7  8  2  0
  8  9  1  0
  8 10  1  0
 10 11  2  0
 10 12  2  0
 10 13  1  0
  9  5  1  0
M  END
$$$$
