
     RDKit          3D

 13 13  0  0  0  0  0  0  0  0999 V2000
    9.1953  -50.0522   -7.4291 C   0  0  0  0  0  0  0  0  0  0  0  0
    8.8491  -49.7428   -6.0070 C   0  0  0  0  0  0  0  0  0  0  0  0
    7.9018  -50.4034   -5.5041 O   0  0  0  0  0  0  0  0  0  0  0  0
    9.5705  -48.7491   -5.2869 N   0  0  0  0  0  0  0  0  0  0  0  0
    9.1737  -48.4315   -3.9190 C   0  0  0  0  0  0  0  0  0  0  0  0
    9.3785  -47.7772   -3.0034 N   0  0  0  0  0  0  0  0  0  0  0  0
    8.7433  -47.8027   -1.8718 N   0  0  0  0  0  0  0  0  0  0  0  0
    7.8505  -48.5047   -1.6015 C   0  0  0  0  0  0  0  0  0  0  0  0
    7.7020  -49.4686   -3.2356 S   0  0  0  0  0  0  0  0  0  0  0  0
    6.7065  -48.9493   -0.3592 S   0  0  0  0  0  0  0  0  0  0  0  0
    5.4500  -49.5494   -0.9323 O   0  0  0  0  0  0  0  0  0  0  0  0
    6.3335  -47.7338    0.4390 O   0  0  0  0  0  0  0  0  0  0  0  0
    7.3428  -50.1185    0.7393 N   0  0  0  0  0  0  0  0  0  0  0  0
  1  2  1  0
  2  3  2  0
  2  4  1  0
  4  5  1  0
  5  6  2  0
  6  7  1  0
  7  8  2  0
  8  9  1  0
  8 10  1  0
 10 11  2  0
 10 12  2  0
 10 13  1  0
  9  5  1  0
M  END
$$$$
