
     RDKit          3D

 13 13  0  0  0  0  0  0  0  0999 V2000
    5.3010  -39.4325    5.4602 C   0  0  0  0  0  0  0  0  0  0  0  0
    4.3248  -40.2106    4.6359 C   0  0  0  0  0  0  0  0  0  0  0  0
    3.1058  -39.9476    4.8139 O   0  0  0  0  0  0  0  0  0  0  0  0
    4.7802  -41.1894    3.7082 N   0  0  0  0  0  0  0  0  0  0  0  0
    3.8199  -41.8195    2.8080 C   0  0  0  0  0  0  0  0  0  0  0  0
    3.6691  -42.5899    1.9762 N   0  0  0  0  0  0  0  0  0  0  0  0
    2.5536  -42.8835    1.3812 N   0  0  0  0  0  0  0  0  0  0  0  0
    1.5120  -42.4041    1.6004 C   0  0  0  0  0  0  0  0  0  0  0  0
    2.0081  -41.1898    2.9792 S   0  0  0  0  0  0  0  0  0  0  0  0
   -0.1793  -42.3978    1.1651 S   0  0  0  0  0  0  0  0  0  0  0  0
   -1.0766  -42.3292    2.3724 O   0  0  0  0  0  0  0  0  0  0  0  0
   -0.5058  -43.6467    0.3986 O   0  0  0  0  0  0  0  0  0  0  0  0
   -0.6025  -41.0516    0.1716 N   0  0  0  0  0  0  0  0  0  0  0  0
  1  2  1  0
  2  3  2  0
  2  4  1  0
  4  5  1  0
  5  6  2  0
  6  7  1  0
  7  8  2  0
  8  9  1  0
  8 10  1  0
 10 11  2  0
 10 12  2  0
 10 13  1  0
  9  5  1  0
M  END
$$$$
