
     RDKit          3D

 29 28  0  0  0  0  0  0  0  0999 V2000
  -10.6475   14.4413   14.8036 C   0  0  0  0  0  0  0  0  0  0  0  0
  -11.6137   14.7913   13.7091 C   0  0  0  0  0  0  0  0  0  0  0  0
  -11.2134   14.6590   12.3105 C   0  0  0  0  0  0  0  0  0  0  0  0
  -12.2257   14.9975   11.2584 C   0  0  0  0  0  0  0  0  0  0  0  0
  -11.4005   15.3719   10.0181 C   0  0  0  0  0  0  0  0  0  0  0  0
  -10.6547   14.2556    9.6964 F   0  0  0  0  0  0  0  0  0  0  0  0
  -10.5408   16.4063   10.2833 F   0  0  0  0  0  0  0  0  0  0  0  0
  -12.4550   15.8293    8.6721 S   0  0  0  0  0  0  0  0  0  0  0  0
  -13.4570   16.8128    9.2065 O   0  0  0  0  0  0  0  0  0  0  0  0
  -11.7031   16.3616    7.5069 O   0  0  0  0  0  0  0  0  0  0  0  0
  -13.3342   14.4897    8.1676 O   0  0  0  0  0  0  0  0  0  0  0  0
  -13.0092   16.0846   11.6370 F   0  0  0  0  0  0  0  0  0  0  0  0
  -13.0432   13.9746   10.8622 F   0  0  0  0  0  0  0  0  0  0  0  0
  -10.5627   13.4942   11.9551 F   0  0  0  0  0  0  0  0  0  0  0  0
  -10.1974   15.6353   12.1213 F   0  0  0  0  0  0  0  0  0  0  0  0
  -12.7620   14.0565   13.9274 F   0  0  0  0  0  0  0  0  0  0  0  0
  -11.9718   16.1138   13.9384 F   0  0  0  0  0  0  0  0  0  0  0  0
  -11.1168   14.6299   16.1855 C   0  0  0  0  0  0  0  0  0  0  0  0
  -10.1448   14.6439   17.3048 C   0  0  0  0  0  0  0  0  0  0  0  0
  -10.6351   14.7432   18.7005 C   0  0  0  0  0  0  0  0  0  0  0  0
   -9.7410   14.5904   19.7006 F   0  0  0  0  0  0  0  0  0  0  0  0
  -11.3911   15.8979   18.9139 F   0  0  0  0  0  0  0  0  0  0  0  0
  -11.5793   13.7022   18.8388 F   0  0  0  0  0  0  0  0  0  0  0  0
   -9.3567   13.4676   17.2620 F   0  0  0  0  0  0  0  0  0  0  0  0
   -9.1871   15.6560   17.1545 F   0  0  0  0  0  0  0  0  0  0  0  0
  -12.0268   13.5795   16.4349 F   0  0  0  0  0  0  0  0  0  0  0  0
  -11.9036   15.7812   16.3710 F   0  0  0  0  0  0  0  0  0  0  0  0
   -9.4267   15.0576   14.6100 F   0  0  0  0  0  0  0  0  0  0  0  0
  -10.3942   13.0915   14.6254 F   0  0  0  0  0  0  0  0  0  0  0  0
  1  2  1  0
  2  3  1  0
  3  4  1  0
  4  5  1  0
  5  6  1  0
  5  7  1  0
  5  8  1  0
  8  9  2  0
  8 10  2  0
  8 11  1  0
  4 12  1  0
  4 13  1  0
  3 14  1  0
  3 15  1  0
  2 16  1  0
  2 17  1  0
  1 18  1  0
 18 19  1  0
 19 20  1  0
 20 21  1  0
 20 22  1  0
 20 23  1  0
 19 24  1  0
 19 25  1  0
 18 26  1  0
 18 27  1  0
  1 28  1  0
  1 29  1  0
M  END
$$$$
