
     RDKit          3D

 29 28  0  0  0  0  0  0  0  0999 V2000
   -8.2106    5.3620    2.6394 C   0  0  0  0  0  0  0  0  0  0  0  0
   -9.4643    5.5592    1.8374 C   0  0  0  0  0  0  0  0  0  0  0  0
   -9.7915    4.6367    0.7532 C   0  0  0  0  0  0  0  0  0  0  0  0
  -11.1745    4.6951    0.1787 C   0  0  0  0  0  0  0  0  0  0  0  0
  -11.1502    3.7298   -1.0159 C   0  0  0  0  0  0  0  0  0  0  0  0
  -10.9214    2.4722   -0.4943 F   0  0  0  0  0  0  0  0  0  0  0  0
  -10.1315    4.0320   -1.8821 F   0  0  0  0  0  0  0  0  0  0  0  0
  -12.6861    3.7730   -1.8945 S   0  0  0  0  0  0  0  0  0  0  0  0
  -13.3588    2.4469   -1.6795 O   0  0  0  0  0  0  0  0  0  0  0  0
  -13.5457    4.9167   -1.4954 O   0  0  0  0  0  0  0  0  0  0  0  0
  -12.3864    3.8860   -3.5436 O   0  0  0  0  0  0  0  0  0  0  0  0
  -11.4857    5.9763   -0.2693 F   0  0  0  0  0  0  0  0  0  0  0  0
  -12.1805    4.2500    0.9919 F   0  0  0  0  0  0  0  0  0  0  0  0
   -9.4283    3.3158    0.9268 F   0  0  0  0  0  0  0  0  0  0  0  0
   -8.9629    5.0313   -0.3326 F   0  0  0  0  0  0  0  0  0  0  0  0
  -10.5167    5.6075    2.7298 F   0  0  0  0  0  0  0  0  0  0  0  0
   -9.3691    6.8401    1.3082 F   0  0  0  0  0  0  0  0  0  0  0  0
   -8.1406    6.0511    3.9378 C   0  0  0  0  0  0  0  0  0  0  0  0
   -7.2722    5.5192    5.0152 C   0  0  0  0  0  0  0  0  0  0  0  0
   -7.3795    6.0757    6.3853 C   0  0  0  0  0  0  0  0  0  0  0  0
   -6.7080    5.4542    7.3781 F   0  0  0  0  0  0  0  0  0  0  0  0
   -7.1146    7.4466    6.4209 F   0  0  0  0  0  0  0  0  0  0  0  0
   -8.7509    5.9975    6.7130 F   0  0  0  0  0  0  0  0  0  0  0  0
   -7.4887    4.1261    5.1533 F   0  0  0  0  0  0  0  0  0  0  0  0
   -5.9145    5.5826    4.6734 F   0  0  0  0  0  0  0  0  0  0  0  0
   -9.4606    6.0751    4.4381 F   0  0  0  0  0  0  0  0  0  0  0  0
   -7.8122    7.4159    3.8448 F   0  0  0  0  0  0  0  0  0  0  0  0
   -7.0854    5.6234    1.8822 F   0  0  0  0  0  0  0  0  0  0  0  0
   -8.1641    3.9994    2.8828 F   0  0  0  0  0  0  0  0  0  0  0  0
  1  2  1  0
  2  3  1  0
  3  4  1  0
  4  5  1  0
  5  6  1  0
  5  7  1  0
  5  8  1  0
  8  9  2  0
  8 10  2  0
  8 11  1  0
  4 12  1  0
  4 13  1  0
  3 14  1  0
  3 15  1  0
  2 16  1  0
  2 17  1  0
  1 18  1  0
 18 19  1  0
 19 20  1  0
 20 21  1  0
 20 22  1  0
 20 23  1  0
 19 24  1  0
 19 25  1  0
 18 26  1  0
 18 27  1  0
  1 28  1  0
  1 29  1  0
M  END
$$$$
