
     RDKit          3D

 29 28  0  0  0  0  0  0  0  0999 V2000
   -7.9767    0.7795    1.2896 C   0  0  0  0  0  0  0  0  0  0  0  0
   -8.6848    0.9621   -0.0216 C   0  0  0  0  0  0  0  0  0  0  0  0
   -9.8392    1.8526   -0.1114 C   0  0  0  0  0  0  0  0  0  0  0  0
  -10.4611    2.0576   -1.4595 C   0  0  0  0  0  0  0  0  0  0  0  0
  -11.6656    2.9766   -1.2065 C   0  0  0  0  0  0  0  0  0  0  0  0
  -11.2011    4.0214   -0.4328 F   0  0  0  0  0  0  0  0  0  0  0  0
  -12.6525    2.3271   -0.5109 F   0  0  0  0  0  0  0  0  0  0  0  0
  -12.3342    3.5763   -2.7316 S   0  0  0  0  0  0  0  0  0  0  0  0
  -13.5801    4.3469   -2.3984 O   0  0  0  0  0  0  0  0  0  0  0  0
  -11.3594    4.3825   -3.5101 O   0  0  0  0  0  0  0  0  0  0  0  0
  -12.8238    2.2782   -3.6789 O   0  0  0  0  0  0  0  0  0  0  0  0
  -10.9042    0.8549   -2.0038 F   0  0  0  0  0  0  0  0  0  0  0  0
   -9.6890    2.7077   -2.3830 F   0  0  0  0  0  0  0  0  0  0  0  0
   -9.7395    3.0704    0.5316 F   0  0  0  0  0  0  0  0  0  0  0  0
  -10.8642    1.2075    0.6334 F   0  0  0  0  0  0  0  0  0  0  0  0
   -7.7364    1.3485   -0.9477 F   0  0  0  0  0  0  0  0  0  0  0  0
   -9.0830   -0.3110   -0.4093 F   0  0  0  0  0  0  0  0  0  0  0  0
   -6.7823   -0.0802    1.2823 C   0  0  0  0  0  0  0  0  0  0  0  0
   -6.0629   -0.3630    2.5473 C   0  0  0  0  0  0  0  0  0  0  0  0
   -6.4841   -1.5078    3.3902 C   0  0  0  0  0  0  0  0  0  0  0  0
   -5.9569   -1.6130    4.6287 F   0  0  0  0  0  0  0  0  0  0  0  0
   -7.8736   -1.6329    3.4552 F   0  0  0  0  0  0  0  0  0  0  0  0
   -6.0834   -2.6608    2.6801 F   0  0  0  0  0  0  0  0  0  0  0  0
   -4.6899   -0.5784    2.2730 F   0  0  0  0  0  0  0  0  0  0  0  0
   -6.0314    0.7539    3.3933 F   0  0  0  0  0  0  0  0  0  0  0  0
   -5.8627    0.5375    0.4071 F   0  0  0  0  0  0  0  0  0  0  0  0
   -6.9869   -1.3395    0.6894 F   0  0  0  0  0  0  0  0  0  0  0  0
   -8.8548    0.3937    2.2835 F   0  0  0  0  0  0  0  0  0  0  0  0
   -7.5750    2.0553    1.6486 F   0  0  0  0  0  0  0  0  0  0  0  0
  1  2  1  0
  2  3  1  0
  3  4  1  0
  4  5  1  0
  5  6  1  0
  5  7  1  0
  5  8  1  0
  8  9  2  0
  8 10  2  0
  8 11  1  0
  4 12  1  0
  4 13  1  0
  3 14  1  0
  3 15  1  0
  2 16  1  0
  2 17  1  0
  1 18  1  0
 18 19  1  0
 19 20  1  0
 20 21  1  0
 20 22  1  0
 20 23  1  0
 19 24  1  0
 19 25  1  0
 18 26  1  0
 18 27  1  0
  1 28  1  0
  1 29  1  0
M  END
$$$$
