
     RDKit          3D

 29 28  0  0  0  0  0  0  0  0999 V2000
   -8.7846    0.6806    1.7829 C   0  0  0  0  0  0  0  0  0  0  0  0
   -9.0263    1.4949    0.5450 C   0  0  0  0  0  0  0  0  0  0  0  0
  -10.3777    1.9407    0.2153 C   0  0  0  0  0  0  0  0  0  0  0  0
  -10.6177    2.4877   -1.1593 C   0  0  0  0  0  0  0  0  0  0  0  0
  -12.1381    2.4031   -1.3613 C   0  0  0  0  0  0  0  0  0  0  0  0
  -12.7074    3.1240   -0.3308 F   0  0  0  0  0  0  0  0  0  0  0  0
  -12.5816    1.1083   -1.2816 F   0  0  0  0  0  0  0  0  0  0  0  0
  -12.6056    3.0773   -2.9297 S   0  0  0  0  0  0  0  0  0  0  0  0
  -12.7681    1.9240   -3.8787 O   0  0  0  0  0  0  0  0  0  0  0  0
  -13.8232    3.9244   -2.8522 O   0  0  0  0  0  0  0  0  0  0  0  0
  -11.3482    4.0116   -3.5363 O   0  0  0  0  0  0  0  0  0  0  0  0
   -9.9796    1.7209   -2.1307 F   0  0  0  0  0  0  0  0  0  0  0  0
  -10.2938    3.8037   -1.3456 F   0  0  0  0  0  0  0  0  0  0  0  0
  -11.0125    2.7455    1.1404 F   0  0  0  0  0  0  0  0  0  0  0  0
  -11.1752    0.7643    0.2494 F   0  0  0  0  0  0  0  0  0  0  0  0
   -8.1860    2.5887    0.6051 F   0  0  0  0  0  0  0  0  0  0  0  0
   -8.5518    0.7215   -0.5069 F   0  0  0  0  0  0  0  0  0  0  0  0
   -7.3809    0.4208    2.1403 C   0  0  0  0  0  0  0  0  0  0  0  0
   -7.0575   -0.4509    3.2950 C   0  0  0  0  0  0  0  0  0  0  0  0
   -5.7939   -1.2266    3.2968 C   0  0  0  0  0  0  0  0  0  0  0  0
   -5.8754   -2.5742    3.2887 F   0  0  0  0  0  0  0  0  0  0  0  0
   -4.9107   -0.7999    2.3025 F   0  0  0  0  0  0  0  0  0  0  0  0
   -5.1379   -0.8677    4.4948 F   0  0  0  0  0  0  0  0  0  0  0  0
   -7.0286    0.3246    4.4800 F   0  0  0  0  0  0  0  0  0  0  0  0
   -8.0808   -1.3712    3.5598 F   0  0  0  0  0  0  0  0  0  0  0  0
   -6.8033    1.6836    2.3948 F   0  0  0  0  0  0  0  0  0  0  0  0
   -6.6023   -0.0756    1.0789 F   0  0  0  0  0  0  0  0  0  0  0  0
   -9.5121   -0.4932    1.7601 F   0  0  0  0  0  0  0  0  0  0  0  0
   -9.3484    1.4259    2.8050 F   0  0  0  0  0  0  0  0  0  0  0  0
  1  2  1  0
  2  3  1  0
  3  4  1  0
  4  5  1  0
  5  6  1  0
  5  7  1  0
  5  8  1  0
  8  9  2  0
  8 10  2  0
  8 11  1  0
  4 12  1  0
  4 13  1  0
  3 14  1  0
  3 15  1  0
  2 16  1  0
  2 17  1  0
  1 18  1  0
 18 19  1  0
 19 20  1  0
 20 21  1  0
 20 22  1  0
 20 23  1  0
 19 24  1  0
 19 25  1  0
 18 26  1  0
 18 27  1  0
  1 28  1  0
  1 29  1  0
M  END
$$$$
