
     RDKit          3D

 29 28  0  0  0  0  0  0  0  0999 V2000
   -8.4272    1.1466    1.5200 C   0  0  0  0  0  0  0  0  0  0  0  0
   -9.2149    1.0968    0.2428 C   0  0  0  0  0  0  0  0  0  0  0  0
  -10.1473    2.1728   -0.0837 C   0  0  0  0  0  0  0  0  0  0  0  0
  -10.9628    2.0360   -1.3337 C   0  0  0  0  0  0  0  0  0  0  0  0
  -11.8249    3.3062   -1.3872 C   0  0  0  0  0  0  0  0  0  0  0  0
  -10.9469    4.3717   -1.3887 F   0  0  0  0  0  0  0  0  0  0  0  0
  -12.6310    3.4101   -0.2832 F   0  0  0  0  0  0  0  0  0  0  0  0
  -12.8336    3.3245   -2.8415 S   0  0  0  0  0  0  0  0  0  0  0  0
  -13.6019    4.6155   -2.8335 O   0  0  0  0  0  0  0  0  0  0  0  0
  -12.0488    3.1388   -4.0888 O   0  0  0  0  0  0  0  0  0  0  0  0
  -13.9764    2.0968   -2.7474 O   0  0  0  0  0  0  0  0  0  0  0  0
  -11.7909    0.9179   -1.2813 F   0  0  0  0  0  0  0  0  0  0  0  0
  -10.2611    2.0171   -2.5079 F   0  0  0  0  0  0  0  0  0  0  0  0
   -9.6658    3.4639    0.0043 F   0  0  0  0  0  0  0  0  0  0  0  0
  -11.1200    2.1482    0.9528 F   0  0  0  0  0  0  0  0  0  0  0  0
   -8.3103    0.9468   -0.7894 F   0  0  0  0  0  0  0  0  0  0  0  0
   -9.9236   -0.0971    0.2898 F   0  0  0  0  0  0  0  0  0  0  0  0
   -7.5857   -0.0216    1.8243 C   0  0  0  0  0  0  0  0  0  0  0  0
   -6.6844   -0.0016    3.0011 C   0  0  0  0  0  0  0  0  0  0  0  0
   -6.1412   -1.2756    3.5304 C   0  0  0  0  0  0  0  0  0  0  0  0
   -5.4286   -1.2354    4.6764 F   0  0  0  0  0  0  0  0  0  0  0  0
   -7.1169   -2.2714    3.6146 F   0  0  0  0  0  0  0  0  0  0  0  0
   -5.2693   -1.7541    2.5278 F   0  0  0  0  0  0  0  0  0  0  0  0
   -5.5545    0.8045    2.7182 F   0  0  0  0  0  0  0  0  0  0  0  0
   -7.2628    0.6597    4.0930 F   0  0  0  0  0  0  0  0  0  0  0  0
   -6.7799   -0.2293    0.6837 F   0  0  0  0  0  0  0  0  0  0  0  0
   -8.2996   -1.2291    1.9318 F   0  0  0  0  0  0  0  0  0  0  0  0
   -9.2348    1.4647    2.5943 F   0  0  0  0  0  0  0  0  0  0  0  0
   -7.5910    2.2405    1.3704 F   0  0  0  0  0  0  0  0  0  0  0  0
  1  2  1  0
  2  3  1  0
  3  4  1  0
  4  5  1  0
  5  6  1  0
  5  7  1  0
  5  8  1  0
  8  9  2  0
  8 10  2  0
  8 11  1  0
  4 12  1  0
  4 13  1  0
  3 14  1  0
  3 15  1  0
  2 16  1  0
  2 17  1  0
  1 18  1  0
 18 19  1  0
 19 20  1  0
 20 21  1  0
 20 22  1  0
 20 23  1  0
 19 24  1  0
 19 25  1  0
 18 26  1  0
 18 27  1  0
  1 28  1  0
  1 29  1  0
M  END
$$$$
