
     RDKit          3D

 29 28  0  0  0  0  0  0  0  0999 V2000
    0.6932   11.4525  -13.1258 C   0  0  0  0  0  0  0  0  0  0  0  0
    1.8663   12.3774  -12.9284 C   0  0  0  0  0  0  0  0  0  0  0  0
    2.8972   12.2703  -14.0161 C   0  0  0  0  0  0  0  0  0  0  0  0
    4.1907   12.8311  -13.4618 C   0  0  0  0  0  0  0  0  0  0  0  0
    5.3472   12.6582  -14.3843 C   0  0  0  0  0  0  0  0  0  0  0  0
    5.8486   11.3740  -14.4224 F   0  0  0  0  0  0  0  0  0  0  0  0
    4.9564   13.0620  -15.6447 F   0  0  0  0  0  0  0  0  0  0  0  0
    6.6185   13.8044  -13.8302 S   0  0  0  0  0  0  0  0  0  0  0  0
    6.0883   15.2084  -13.8890 O   0  0  0  0  0  0  0  0  0  0  0  0
    7.8731   13.6243  -14.6196 O   0  0  0  0  0  0  0  0  0  0  0  0
    7.0017   13.3973  -12.2375 O   0  0  0  0  0  0  0  0  0  0  0  0
    4.3821   12.2413  -12.2289 F   0  0  0  0  0  0  0  0  0  0  0  0
    4.0401   14.1916  -13.2508 F   0  0  0  0  0  0  0  0  0  0  0  0
    3.0738   10.9325  -14.3005 F   0  0  0  0  0  0  0  0  0  0  0  0
    2.5151   12.9019  -15.1772 F   0  0  0  0  0  0  0  0  0  0  0  0
    1.3930   13.6440  -12.7195 F   0  0  0  0  0  0  0  0  0  0  0  0
    2.4858   11.9724  -11.7471 F   0  0  0  0  0  0  0  0  0  0  0  0
   -0.3056   11.8063  -12.0500 C   0  0  0  0  0  0  0  0  0  0  0  0
   -1.5821   11.0127  -12.1587 C   0  0  0  0  0  0  0  0  0  0  0  0
   -2.3395   11.2438  -10.8418 C   0  0  0  0  0  0  0  0  0  0  0  0
   -1.5936   10.8090   -9.7696 F   0  0  0  0  0  0  0  0  0  0  0  0
   -2.5622   12.5783  -10.6740 F   0  0  0  0  0  0  0  0  0  0  0  0
   -3.5400   10.5729  -10.8374 F   0  0  0  0  0  0  0  0  0  0  0  0
   -2.3155   11.5114  -13.2113 F   0  0  0  0  0  0  0  0  0  0  0  0
   -1.2739    9.6725  -12.2914 F   0  0  0  0  0  0  0  0  0  0  0  0
    0.3001   11.5700  -10.8292 F   0  0  0  0  0  0  0  0  0  0  0  0
   -0.5945   13.1522  -12.1905 F   0  0  0  0  0  0  0  0  0  0  0  0
    1.0334   10.1282  -13.1229 F   0  0  0  0  0  0  0  0  0  0  0  0
    0.1569   11.7862  -14.3587 F   0  0  0  0  0  0  0  0  0  0  0  0
  1  2  1  0
  2  3  1  0
  3  4  1  0
  4  5  1  0
  5  6  1  0
  5  7  1  0
  5  8  1  0
  8  9  2  0
  8 10  2  0
  8 11  1  0
  4 12  1  0
  4 13  1  0
  3 14  1  0
  3 15  1  0
  2 16  1  0
  2 17  1  0
  1 18  1  0
 18 19  1  0
 19 20  1  0
 20 21  1  0
 20 22  1  0
 20 23  1  0
 19 24  1  0
 19 25  1  0
 18 26  1  0
 18 27  1  0
  1 28  1  0
  1 29  1  0
M  END
$$$$
