
     RDKit          3D

 29 28  0  0  0  0  0  0  0  0999 V2000
   11.1280    6.1358    9.0653 C   0  0  0  0  0  0  0  0  0  0  0  0
   11.8452    7.0340    8.0910 C   0  0  0  0  0  0  0  0  0  0  0  0
   10.9152    7.8692    7.2574 C   0  0  0  0  0  0  0  0  0  0  0  0
   11.7081    9.0618    6.7634 C   0  0  0  0  0  0  0  0  0  0  0  0
   10.8853   10.0326    5.9894 C   0  0  0  0  0  0  0  0  0  0  0  0
   10.2762    9.4914    4.8766 F   0  0  0  0  0  0  0  0  0  0  0  0
    9.9435   10.5734    6.8407 F   0  0  0  0  0  0  0  0  0  0  0  0
   11.9907   11.3667    5.5044 S   0  0  0  0  0  0  0  0  0  0  0  0
   11.2211   12.4005    4.7331 O   0  0  0  0  0  0  0  0  0  0  0  0
   13.1635   10.8335    4.7495 O   0  0  0  0  0  0  0  0  0  0  0  0
   12.6107   12.0446    6.9204 O   0  0  0  0  0  0  0  0  0  0  0  0
   12.7762    8.5589    6.0488 F   0  0  0  0  0  0  0  0  0  0  0  0
   12.2235    9.7448    7.8524 F   0  0  0  0  0  0  0  0  0  0  0  0
   10.5231    7.1114    6.1740 F   0  0  0  0  0  0  0  0  0  0  0  0
    9.7821    8.2482    7.9398 F   0  0  0  0  0  0  0  0  0  0  0  0
   12.7916    7.7494    8.7724 F   0  0  0  0  0  0  0  0  0  0  0  0
   12.5238    6.1909    7.2124 F   0  0  0  0  0  0  0  0  0  0  0  0
   12.1606    5.7094   10.0812 C   0  0  0  0  0  0  0  0  0  0  0  0
   11.5438    5.2144   11.3640 C   0  0  0  0  0  0  0  0  0  0  0  0
   12.7164    4.9088   12.3089 C   0  0  0  0  0  0  0  0  0  0  0  0
   13.3561    6.0696   12.6807 F   0  0  0  0  0  0  0  0  0  0  0  0
   12.2437    4.3180   13.4430 F   0  0  0  0  0  0  0  0  0  0  0  0
   13.6339    4.0800   11.7066 F   0  0  0  0  0  0  0  0  0  0  0  0
   10.7710    6.2235   11.8923 F   0  0  0  0  0  0  0  0  0  0  0  0
   10.8346    4.0564   11.1099 F   0  0  0  0  0  0  0  0  0  0  0  0
   12.9228    4.7109    9.5024 F   0  0  0  0  0  0  0  0  0  0  0  0
   12.9451    6.8166   10.3523 F   0  0  0  0  0  0  0  0  0  0  0  0
   10.4954    5.0787    8.4721 F   0  0  0  0  0  0  0  0  0  0  0  0
   10.1899    6.9384    9.6936 F   0  0  0  0  0  0  0  0  0  0  0  0
  1  2  1  0
  2  3  1  0
  3  4  1  0
  4  5  1  0
  5  6  1  0
  5  7  1  0
  5  8  1  0
  8  9  2  0
  8 10  2  0
  8 11  1  0
  4 12  1  0
  4 13  1  0
  3 14  1  0
  3 15  1  0
  2 16  1  0
  2 17  1  0
  1 18  1  0
 18 19  1  0
 19 20  1  0
 20 21  1  0
 20 22  1  0
 20 23  1  0
 19 24  1  0
 19 25  1  0
 18 26  1  0
 18 27  1  0
  1 28  1  0
  1 29  1  0
M  END
$$$$
