
     RDKit          3D

 29 28  0  0  0  0  0  0  0  0999 V2000
   13.2098    2.8806    1.1736 C   0  0  0  0  0  0  0  0  0  0  0  0
   14.3065    2.7854    0.1447 C   0  0  0  0  0  0  0  0  0  0  0  0
   14.2405    1.5312   -0.6800 C   0  0  0  0  0  0  0  0  0  0  0  0
   15.5349    1.4428   -1.4621 C   0  0  0  0  0  0  0  0  0  0  0  0
   15.5717    0.2913   -2.4061 C   0  0  0  0  0  0  0  0  0  0  0  0
   15.5007   -0.9415   -1.7919 F   0  0  0  0  0  0  0  0  0  0  0  0
   14.5386    0.4417   -3.3086 F   0  0  0  0  0  0  0  0  0  0  0  0
   17.1087    0.4366   -3.3297 S   0  0  0  0  0  0  0  0  0  0  0  0
   17.2800   -0.7671   -4.2115 O   0  0  0  0  0  0  0  0  0  0  0  0
   18.2626    0.6481   -2.4059 O   0  0  0  0  0  0  0  0  0  0  0  0
   16.9979    1.8326   -4.2722 O   0  0  0  0  0  0  0  0  0  0  0  0
   16.5572    1.4224   -0.5352 F   0  0  0  0  0  0  0  0  0  0  0  0
   15.6855    2.5927   -2.2190 F   0  0  0  0  0  0  0  0  0  0  0  0
   14.1652    0.4601    0.1853 F   0  0  0  0  0  0  0  0  0  0  0  0
   13.1367    1.4898   -1.5003 F   0  0  0  0  0  0  0  0  0  0  0  0
   14.3219    3.9426   -0.5850 F   0  0  0  0  0  0  0  0  0  0  0  0
   15.5039    2.7349    0.8567 F   0  0  0  0  0  0  0  0  0  0  0  0
   13.5202    4.1016    2.0059 C   0  0  0  0  0  0  0  0  0  0  0  0
   12.6860    4.1784    3.2585 C   0  0  0  0  0  0  0  0  0  0  0  0
   12.9691    5.5578    3.8737 C   0  0  0  0  0  0  0  0  0  0  0  0
   13.1896    6.4933    2.8882 F   0  0  0  0  0  0  0  0  0  0  0  0
   11.8850    5.9655    4.5930 F   0  0  0  0  0  0  0  0  0  0  0  0
   14.0745    5.5175    4.6907 F   0  0  0  0  0  0  0  0  0  0  0  0
   11.3592    4.0905    2.9031 F   0  0  0  0  0  0  0  0  0  0  0  0
   13.0863    3.1861    4.1326 F   0  0  0  0  0  0  0  0  0  0  0  0
   14.8638    4.0505    2.3304 F   0  0  0  0  0  0  0  0  0  0  0  0
   13.2581    5.2081    1.2175 F   0  0  0  0  0  0  0  0  0  0  0  0
   13.0630    1.7470    1.9239 F   0  0  0  0  0  0  0  0  0  0  0  0
   12.0457    3.1125    0.4594 F   0  0  0  0  0  0  0  0  0  0  0  0
  1  2  1  0
  2  3  1  0
  3  4  1  0
  4  5  1  0
  5  6  1  0
  5  7  1  0
  5  8  1  0
  8  9  2  0
  8 10  2  0
  8 11  1  0
  4 12  1  0
  4 13  1  0
  3 14  1  0
  3 15  1  0
  2 16  1  0
  2 17  1  0
  1 18  1  0
 18 19  1  0
 19 20  1  0
 20 21  1  0
 20 22  1  0
 20 23  1  0
 19 24  1  0
 19 25  1  0
 18 26  1  0
 18 27  1  0
  1 28  1  0
  1 29  1  0
M  END
$$$$
