
     RDKit          3D

 29 28  0  0  0  0  0  0  0  0999 V2000
   11.0948    8.4771   -8.4069 C   0  0  0  0  0  0  0  0  0  0  0  0
   11.9067    8.4620   -7.1376 C   0  0  0  0  0  0  0  0  0  0  0  0
   11.7032    9.6839   -6.2874 C   0  0  0  0  0  0  0  0  0  0  0  0
   12.8756    9.7626   -5.3312 C   0  0  0  0  0  0  0  0  0  0  0  0
   12.9089   11.0289   -4.5478 C   0  0  0  0  0  0  0  0  0  0  0  0
   13.3517   12.1212   -5.2639 F   0  0  0  0  0  0  0  0  0  0  0  0
   11.6433   11.2593   -4.0483 F   0  0  0  0  0  0  0  0  0  0  0  0
   13.9889   10.7306   -3.1401 S   0  0  0  0  0  0  0  0  0  0  0  0
   14.0914   11.9800   -2.3128 O   0  0  0  0  0  0  0  0  0  0  0  0
   15.3185   10.2232   -3.5920 O   0  0  0  0  0  0  0  0  0  0  0  0
   13.2957    9.4896   -2.2298 O   0  0  0  0  0  0  0  0  0  0  0  0
   14.0143    9.5547   -6.0826 F   0  0  0  0  0  0  0  0  0  0  0  0
   12.7861    8.7239   -4.4194 F   0  0  0  0  0  0  0  0  0  0  0  0
   11.7267   10.7849   -7.1174 F   0  0  0  0  0  0  0  0  0  0  0  0
   10.4963    9.6790   -5.6267 F   0  0  0  0  0  0  0  0  0  0  0  0
   11.6823    7.2779   -6.4901 F   0  0  0  0  0  0  0  0  0  0  0  0
   13.2439    8.4656   -7.5317 F   0  0  0  0  0  0  0  0  0  0  0  0
   11.7259    7.4541   -9.3208 C   0  0  0  0  0  0  0  0  0  0  0  0
   11.1631    7.4975  -10.7180 C   0  0  0  0  0  0  0  0  0  0  0  0
   11.8866    6.3914  -11.5020 C   0  0  0  0  0  0  0  0  0  0  0  0
   11.6838    5.1648  -10.9110 F   0  0  0  0  0  0  0  0  0  0  0  0
   11.3822    6.3272  -12.7670 F   0  0  0  0  0  0  0  0  0  0  0  0
   13.2399    6.6292  -11.5579 F   0  0  0  0  0  0  0  0  0  0  0  0
    9.8169    7.2179  -10.6532 F   0  0  0  0  0  0  0  0  0  0  0  0
   11.4410    8.7279  -11.2818 F   0  0  0  0  0  0  0  0  0  0  0  0
   13.0858    7.7054   -9.3466 F   0  0  0  0  0  0  0  0  0  0  0  0
   11.4778    6.2092   -8.7699 F   0  0  0  0  0  0  0  0  0  0  0  0
   10.9964    9.7149   -8.9793 F   0  0  0  0  0  0  0  0  0  0  0  0
    9.8318    8.0352   -8.0485 F   0  0  0  0  0  0  0  0  0  0  0  0
  1  2  1  0
  2  3  1  0
  3  4  1  0
  4  5  1  0
  5  6  1  0
  5  7  1  0
  5  8  1  0
  8  9  2  0
  8 10  2  0
  8 11  1  0
  4 12  1  0
  4 13  1  0
  3 14  1  0
  3 15  1  0
  2 16  1  0
  2 17  1  0
  1 18  1  0
 18 19  1  0
 19 20  1  0
 20 21  1  0
 20 22  1  0
 20 23  1  0
 19 24  1  0
 19 25  1  0
 18 26  1  0
 18 27  1  0
  1 28  1  0
  1 29  1  0
M  END
$$$$
