
     RDKit          3D

 25 24  0  0  0  0  0  0  0  0999 V2000
    6.6380   -1.2818  -14.6151 C   0  0  0  0  0  0  0  0  0  0  0  0
    6.6372   -2.2539  -13.8392 O   0  0  0  0  0  0  0  0  0  0  0  0
    7.1424    0.0782  -14.2289 C   0  0  0  0  0  0  0  0  0  0  0  0
    6.1206    0.6073  -13.2395 C   0  0  0  0  0  0  0  0  0  0  0  0
    6.4371    2.0107  -12.7900 C   0  0  0  0  0  0  0  0  0  0  0  0
    5.1870    2.5267  -12.0650 C   0  0  0  0  0  0  0  0  0  0  0  0
    5.4293    3.8340  -11.4165 C   0  0  0  0  0  0  0  0  0  0  0  0
    4.1843    4.6351  -11.2470 C   0  0  0  0  0  0  0  0  0  0  0  0
    4.2963    5.9606  -10.5775 C   0  0  0  0  0  0  0  0  0  0  0  0
    4.9293    6.9115  -11.3502 F   0  0  0  0  0  0  0  0  0  0  0  0
    4.7939    5.9230   -9.3059 F   0  0  0  0  0  0  0  0  0  0  0  0
    2.9583    6.4162  -10.4131 F   0  0  0  0  0  0  0  0  0  0  0  0
    3.5663    4.8761  -12.4830 F   0  0  0  0  0  0  0  0  0  0  0  0
    3.2226    3.9010  -10.5231 F   0  0  0  0  0  0  0  0  0  0  0  0
    6.2893    4.6016  -12.2214 F   0  0  0  0  0  0  0  0  0  0  0  0
    6.1030    3.6675  -10.2042 F   0  0  0  0  0  0  0  0  0  0  0  0
    4.9565    1.5660  -11.0895 F   0  0  0  0  0  0  0  0  0  0  0  0
    4.1697    2.5628  -12.9557 F   0  0  0  0  0  0  0  0  0  0  0  0
    6.7483    2.7666  -13.8917 F   0  0  0  0  0  0  0  0  0  0  0  0
    7.5099    1.9809  -11.9403 F   0  0  0  0  0  0  0  0  0  0  0  0
    4.8989    0.5075  -13.8492 F   0  0  0  0  0  0  0  0  0  0  0  0
    6.1044   -0.2745  -12.1715 F   0  0  0  0  0  0  0  0  0  0  0  0
    7.1892    0.8295  -15.3871 F   0  0  0  0  0  0  0  0  0  0  0  0
    8.3987   -0.0453  -13.6363 F   0  0  0  0  0  0  0  0  0  0  0  0
    6.1590   -1.3874  -15.9312 O   0  0  0  0  0  0  0  0  0  0  0  0
  1  2  2  0
  1  3  1  0
  3  4  1  0
  4  5  1  0
  5  6  1  0
  6  7  1  0
  7  8  1  0
  8  9  1  0
  9 10  1  0
  9 11  1  0
  9 12  1  0
  8 13  1  0
  8 14  1  0
  7 15  1  0
  7 16  1  0
  6 17  1  0
  6 18  1  0
  5 19  1  0
  5 20  1  0
  4 21  1  0
  4 22  1  0
  3 23  1  0
  3 24  1  0
  1 25  1  0
M  END
$$$$
