
     RDKit          3D

 25 24  0  0  0  0  0  0  0  0999 V2000
    5.4375    1.0318  -13.9722 C   0  0  0  0  0  0  0  0  0  0  0  0
    4.9580   -0.1145  -13.9170 O   0  0  0  0  0  0  0  0  0  0  0  0
    6.4460    1.5496  -12.9882 C   0  0  0  0  0  0  0  0  0  0  0  0
    6.4824    0.5106  -11.8829 C   0  0  0  0  0  0  0  0  0  0  0  0
    7.5117    0.8346  -10.8306 C   0  0  0  0  0  0  0  0  0  0  0  0
    7.4652   -0.3107   -9.8106 C   0  0  0  0  0  0  0  0  0  0  0  0
    8.6318   -0.2834   -8.9013 C   0  0  0  0  0  0  0  0  0  0  0  0
    8.6201   -1.3975   -7.9117 C   0  0  0  0  0  0  0  0  0  0  0  0
    9.8514   -1.6241   -7.1054 C   0  0  0  0  0  0  0  0  0  0  0  0
   10.3222   -0.4812   -6.4937 F   0  0  0  0  0  0  0  0  0  0  0  0
   10.8454   -2.3033   -7.7511 F   0  0  0  0  0  0  0  0  0  0  0  0
    9.4600   -2.4990   -6.0538 F   0  0  0  0  0  0  0  0  0  0  0  0
    7.5754   -1.2424   -6.9886 F   0  0  0  0  0  0  0  0  0  0  0  0
    8.3302   -2.6198   -8.5518 F   0  0  0  0  0  0  0  0  0  0  0  0
    8.6151    0.9094   -8.1570 F   0  0  0  0  0  0  0  0  0  0  0  0
    9.8245   -0.2529   -9.6278 F   0  0  0  0  0  0  0  0  0  0  0  0
    7.5245   -1.4519  -10.5992 F   0  0  0  0  0  0  0  0  0  0  0  0
    6.2852   -0.2401   -9.1531 F   0  0  0  0  0  0  0  0  0  0  0  0
    7.1995    2.0457  -10.2671 F   0  0  0  0  0  0  0  0  0  0  0  0
    8.7469    0.9095  -11.4159 F   0  0  0  0  0  0  0  0  0  0  0  0
    5.2123    0.4334  -11.3777 F   0  0  0  0  0  0  0  0  0  0  0  0
    6.7436   -0.7078  -12.4879 F   0  0  0  0  0  0  0  0  0  0  0  0
    5.9788    2.7715  -12.5446 F   0  0  0  0  0  0  0  0  0  0  0  0
    7.6874    1.6618  -13.6137 F   0  0  0  0  0  0  0  0  0  0  0  0
    5.0642    1.9406  -14.9758 O   0  0  0  0  0  0  0  0  0  0  0  0
  1  2  2  0
  1  3  1  0
  3  4  1  0
  4  5  1  0
  5  6  1  0
  6  7  1  0
  7  8  1  0
  8  9  1  0
  9 10  1  0
  9 11  1  0
  9 12  1  0
  8 13  1  0
  8 14  1  0
  7 15  1  0
  7 16  1  0
  6 17  1  0
  6 18  1  0
  5 19  1  0
  5 20  1  0
  4 21  1  0
  4 22  1  0
  3 23  1  0
  3 24  1  0
  1 25  1  0
M  END
$$$$
