
     RDKit          3D

 25 24  0  0  0  0  0  0  0  0999 V2000
   10.7186   -2.4414  -10.6789 C   0  0  0  0  0  0  0  0  0  0  0  0
    9.9428   -1.7103  -11.3196 O   0  0  0  0  0  0  0  0  0  0  0  0
   10.8122   -2.4280   -9.1808 C   0  0  0  0  0  0  0  0  0  0  0  0
    9.6967   -1.5043   -8.7279 C   0  0  0  0  0  0  0  0  0  0  0  0
    9.5467   -1.4854   -7.2283 C   0  0  0  0  0  0  0  0  0  0  0  0
    8.1383   -0.9490   -6.9396 C   0  0  0  0  0  0  0  0  0  0  0  0
    7.5639   -1.5471   -5.7146 C   0  0  0  0  0  0  0  0  0  0  0  0
    6.2836   -0.9050   -5.3031 C   0  0  0  0  0  0  0  0  0  0  0  0
    5.4768   -1.5773   -4.2472 C   0  0  0  0  0  0  0  0  0  0  0  0
    5.3777   -2.9418   -4.4207 F   0  0  0  0  0  0  0  0  0  0  0  0
    4.2611   -1.0051   -4.0000 F   0  0  0  0  0  0  0  0  0  0  0  0
    6.2020   -1.3873   -3.0378 F   0  0  0  0  0  0  0  0  0  0  0  0
    6.4978    0.4056   -4.8516 F   0  0  0  0  0  0  0  0  0  0  0  0
    5.4334   -0.7469   -6.4166 F   0  0  0  0  0  0  0  0  0  0  0  0
    8.4591   -1.3697   -4.6450 F   0  0  0  0  0  0  0  0  0  0  0  0
    7.4235   -2.9294   -5.8580 F   0  0  0  0  0  0  0  0  0  0  0  0
    7.4006   -1.3613   -8.0412 F   0  0  0  0  0  0  0  0  0  0  0  0
    8.2063    0.4008   -6.8830 F   0  0  0  0  0  0  0  0  0  0  0  0
   10.5266   -0.6854   -6.6976 F   0  0  0  0  0  0  0  0  0  0  0  0
    9.6866   -2.7584   -6.7450 F   0  0  0  0  0  0  0  0  0  0  0  0
    9.9763   -0.2697   -9.2495 F   0  0  0  0  0  0  0  0  0  0  0  0
    8.5379   -1.9434   -9.3468 F   0  0  0  0  0  0  0  0  0  0  0  0
   12.0630   -1.9348   -8.8641 F   0  0  0  0  0  0  0  0  0  0  0  0
   10.6229   -3.7210   -8.6938 F   0  0  0  0  0  0  0  0  0  0  0  0
   11.5781   -3.3479  -11.3209 O   0  0  0  0  0  0  0  0  0  0  0  0
  1  2  2  0
  1  3  1  0
  3  4  1  0
  4  5  1  0
  5  6  1  0
  6  7  1  0
  7  8  1  0
  8  9  1  0
  9 10  1  0
  9 11  1  0
  9 12  1  0
  8 13  1  0
  8 14  1  0
  7 15  1  0
  7 16  1  0
  6 17  1  0
  6 18  1  0
  5 19  1  0
  5 20  1  0
  4 21  1  0
  4 22  1  0
  3 23  1  0
  3 24  1  0
  1 25  1  0
M  END
$$$$
