
     RDKit          3D

 29 28  0  0  0  0  0  0  0  0999 V2000
    1.8260   -6.6474    2.2762 C   0  0  0  0  0  0  0  0  0  0  0  0
    0.6763   -7.5715    2.1135 C   0  0  0  0  0  0  0  0  0  0  0  0
    0.6948   -8.3087    0.8062 C   0  0  0  0  0  0  0  0  0  0  0  0
   -0.1391   -9.5159    0.6553 C   0  0  0  0  0  0  0  0  0  0  0  0
   -0.0695  -10.0158   -0.8192 C   0  0  0  0  0  0  0  0  0  0  0  0
   -0.3386   -9.0225   -1.7007 F   0  0  0  0  0  0  0  0  0  0  0  0
    1.2157  -10.4552   -0.9975 F   0  0  0  0  0  0  0  0  0  0  0  0
   -1.1639  -11.3984   -0.9674 S   0  0  0  0  0  0  0  0  0  0  0  0
   -0.4399  -12.6970   -0.8790 O   0  0  0  0  0  0  0  0  0  0  0  0
   -2.2214  -11.3727    0.0984 O   0  0  0  0  0  0  0  0  0  0  0  0
   -1.9902  -11.3294   -2.4389 O   0  0  0  0  0  0  0  0  0  0  0  0
   -1.5097   -9.2235    0.8213 F   0  0  0  0  0  0  0  0  0  0  0  0
    0.1448  -10.5809    1.4399 F   0  0  0  0  0  0  0  0  0  0  0  0
    2.0267   -8.6247    0.4577 F   0  0  0  0  0  0  0  0  0  0  0  0
    0.3198   -7.4308   -0.2365 F   0  0  0  0  0  0  0  0  0  0  0  0
    0.6404   -8.5347    3.1256 F   0  0  0  0  0  0  0  0  0  0  0  0
   -0.5193   -6.8515    2.2473 F   0  0  0  0  0  0  0  0  0  0  0  0
    2.0461   -6.0651    3.6298 C   0  0  0  0  0  0  0  0  0  0  0  0
    3.0270   -4.9869    3.8195 C   0  0  0  0  0  0  0  0  0  0  0  0
    3.4271   -4.6823    5.2370 C   0  0  0  0  0  0  0  0  0  0  0  0
    2.2528   -4.4580    5.9611 F   0  0  0  0  0  0  0  0  0  0  0  0
    4.0809   -5.7171    5.8470 F   0  0  0  0  0  0  0  0  0  0  0  0
    4.1464   -3.4973    5.3221 F   0  0  0  0  0  0  0  0  0  0  0  0
    4.2245   -5.4664    3.2077 F   0  0  0  0  0  0  0  0  0  0  0  0
    2.7508   -3.8323    3.1476 F   0  0  0  0  0  0  0  0  0  0  0  0
    0.8167   -5.6973    4.2027 F   0  0  0  0  0  0  0  0  0  0  0  0
    2.4768   -7.1380    4.4341 F   0  0  0  0  0  0  0  0  0  0  0  0
    1.4779   -5.4980    1.4976 F   0  0  0  0  0  0  0  0  0  0  0  0
    2.9337   -7.1573    1.6675 F   0  0  0  0  0  0  0  0  0  0  0  0
  1  2  1  0
  2  3  1  0
  3  4  1  0
  4  5  1  0
  5  6  1  0
  5  7  1  0
  5  8  1  0
  8  9  2  0
  8 10  2  0
  8 11  1  0
  4 12  1  0
  4 13  1  0
  3 14  1  0
  3 15  1  0
  2 16  1  0
  2 17  1  0
  1 18  1  0
 18 19  1  0
 19 20  1  0
 20 21  1  0
 20 22  1  0
 20 23  1  0
 19 24  1  0
 19 25  1  0
 18 26  1  0
 18 27  1  0
  1 28  1  0
  1 29  1  0
M  END
$$$$
