
     RDKit          3D

 29 28  0  0  0  0  0  0  0  0999 V2000
   -7.2526   -9.9496  -16.5242 C   0  0  0  0  0  0  0  0  0  0  0  0
   -6.9264  -11.3730  -16.7881 C   0  0  0  0  0  0  0  0  0  0  0  0
   -8.1333  -12.2009  -17.1212 C   0  0  0  0  0  0  0  0  0  0  0  0
   -7.9708  -13.6538  -17.3164 C   0  0  0  0  0  0  0  0  0  0  0  0
   -9.3732  -14.3233  -17.4341 C   0  0  0  0  0  0  0  0  0  0  0  0
  -10.0889  -14.1968  -16.2904 F   0  0  0  0  0  0  0  0  0  0  0  0
  -10.0103  -13.6644  -18.4523 F   0  0  0  0  0  0  0  0  0  0  0  0
   -9.1233  -16.0062  -17.9207 S   0  0  0  0  0  0  0  0  0  0  0  0
   -8.4022  -16.1118  -19.2196 O   0  0  0  0  0  0  0  0  0  0  0  0
   -8.3441  -16.7630  -16.8839 O   0  0  0  0  0  0  0  0  0  0  0  0
  -10.6089  -16.7993  -18.0512 O   0  0  0  0  0  0  0  0  0  0  0  0
   -7.4244  -14.2730  -16.1722 F   0  0  0  0  0  0  0  0  0  0  0  0
   -7.2512  -14.0703  -18.3838 F   0  0  0  0  0  0  0  0  0  0  0  0
   -8.7864  -11.6566  -18.2491 F   0  0  0  0  0  0  0  0  0  0  0  0
   -9.1096  -12.0399  -16.1115 F   0  0  0  0  0  0  0  0  0  0  0  0
   -6.0309  -11.5090  -17.8525 F   0  0  0  0  0  0  0  0  0  0  0  0
   -6.2618  -11.9098  -15.6764 F   0  0  0  0  0  0  0  0  0  0  0  0
   -6.1736   -9.0986  -15.9485 C   0  0  0  0  0  0  0  0  0  0  0  0
   -6.4660   -7.7220  -15.5239 C   0  0  0  0  0  0  0  0  0  0  0  0
   -5.3741   -6.9994  -14.7837 C   0  0  0  0  0  0  0  0  0  0  0  0
   -5.8192   -5.6940  -14.5570 F   0  0  0  0  0  0  0  0  0  0  0  0
   -5.0990   -7.5456  -13.5605 F   0  0  0  0  0  0  0  0  0  0  0  0
   -4.2291   -6.8705  -15.5592 F   0  0  0  0  0  0  0  0  0  0  0  0
   -6.6190   -6.9866  -16.7380 F   0  0  0  0  0  0  0  0  0  0  0  0
   -7.6595   -7.5579  -14.8841 F   0  0  0  0  0  0  0  0  0  0  0  0
   -5.5161   -9.7868  -14.9146 F   0  0  0  0  0  0  0  0  0  0  0  0
   -5.1940   -9.0025  -16.9558 F   0  0  0  0  0  0  0  0  0  0  0  0
   -8.2135   -9.9903  -15.4643 F   0  0  0  0  0  0  0  0  0  0  0  0
   -7.9240   -9.4132  -17.5820 F   0  0  0  0  0  0  0  0  0  0  0  0
  1  2  1  0
  2  3  1  0
  3  4  1  0
  4  5  1  0
  5  6  1  0
  5  7  1  0
  5  8  1  0
  8  9  2  0
  8 10  2  0
  8 11  1  0
  4 12  1  0
  4 13  1  0
  3 14  1  0
  3 15  1  0
  2 16  1  0
  2 17  1  0
  1 18  1  0
 18 19  1  0
 19 20  1  0
 20 21  1  0
 20 22  1  0
 20 23  1  0
 19 24  1  0
 19 25  1  0
 18 26  1  0
 18 27  1  0
  1 28  1  0
  1 29  1  0
M  END
$$$$
