
     RDKit          3D

 29 28  0  0  0  0  0  0  0  0999 V2000
    1.5462   -7.8056   -0.4578 C   0  0  0  0  0  0  0  0  0  0  0  0
    2.0753   -7.9233   -1.8393 C   0  0  0  0  0  0  0  0  0  0  0  0
    2.5125   -9.3170   -2.1849 C   0  0  0  0  0  0  0  0  0  0  0  0
    3.3883   -9.5214   -3.3539 C   0  0  0  0  0  0  0  0  0  0  0  0
    4.0884  -10.9094   -3.2436 C   0  0  0  0  0  0  0  0  0  0  0  0
    4.2394  -11.2959   -1.9536 F   0  0  0  0  0  0  0  0  0  0  0  0
    3.2647  -11.7889   -3.8953 F   0  0  0  0  0  0  0  0  0  0  0  0
    5.6181  -10.8086   -4.1274 S   0  0  0  0  0  0  0  0  0  0  0  0
    6.6654  -10.0867   -3.3527 O   0  0  0  0  0  0  0  0  0  0  0  0
    6.1401  -12.1742   -4.4703 O   0  0  0  0  0  0  0  0  0  0  0  0
    5.3850  -10.0201   -5.6029 O   0  0  0  0  0  0  0  0  0  0  0  0
    4.4758   -8.6222   -3.3508 F   0  0  0  0  0  0  0  0  0  0  0  0
    2.8235   -9.4683   -4.5822 F   0  0  0  0  0  0  0  0  0  0  0  0
    1.3809  -10.1533   -2.3075 F   0  0  0  0  0  0  0  0  0  0  0  0
    3.1815   -9.8899   -1.0791 F   0  0  0  0  0  0  0  0  0  0  0  0
    1.1239   -7.5455   -2.7908 F   0  0  0  0  0  0  0  0  0  0  0  0
    3.1396   -7.0259   -2.0058 F   0  0  0  0  0  0  0  0  0  0  0  0
    1.6248   -6.4664    0.1903 C   0  0  0  0  0  0  0  0  0  0  0  0
    1.2809   -6.3121    1.6111 C   0  0  0  0  0  0  0  0  0  0  0  0
    1.1610   -4.9039    2.1257 C   0  0  0  0  0  0  0  0  0  0  0  0
   -0.1886   -4.6793    2.4113 F   0  0  0  0  0  0  0  0  0  0  0  0
    1.8550   -4.6926    3.2851 F   0  0  0  0  0  0  0  0  0  0  0  0
    1.4927   -3.9728    1.1501 F   0  0  0  0  0  0  0  0  0  0  0  0
   -0.0371   -6.8477    1.7314 F   0  0  0  0  0  0  0  0  0  0  0  0
    2.0253   -7.0673    2.4691 F   0  0  0  0  0  0  0  0  0  0  0  0
    2.8766   -5.8802   -0.0635 F   0  0  0  0  0  0  0  0  0  0  0  0
    0.7273   -5.6503   -0.5251 F   0  0  0  0  0  0  0  0  0  0  0  0
    2.4412   -8.5882    0.3390 F   0  0  0  0  0  0  0  0  0  0  0  0
    0.3442   -8.4396   -0.3551 F   0  0  0  0  0  0  0  0  0  0  0  0
  1  2  1  0
  2  3  1  0
  3  4  1  0
  4  5  1  0
  5  6  1  0
  5  7  1  0
  5  8  1  0
  8  9  2  0
  8 10  2  0
  8 11  1  0
  4 12  1  0
  4 13  1  0
  3 14  1  0
  3 15  1  0
  2 16  1  0
  2 17  1  0
  1 18  1  0
 18 19  1  0
 19 20  1  0
 20 21  1  0
 20 22  1  0
 20 23  1  0
 19 24  1  0
 19 25  1  0
 18 26  1  0
 18 27  1  0
  1 28  1  0
  1 29  1  0
M  END
$$$$
