
     RDKit          3D

 29 28  0  0  0  0  0  0  0  0999 V2000
  -10.0878  -12.0123   -7.3880 C   0  0  0  0  0  0  0  0  0  0  0  0
   -9.2739  -13.0448   -6.6996 C   0  0  0  0  0  0  0  0  0  0  0  0
   -8.1060  -12.4706   -5.9518 C   0  0  0  0  0  0  0  0  0  0  0  0
   -7.0792  -13.3859   -5.4194 C   0  0  0  0  0  0  0  0  0  0  0  0
   -6.2335  -12.6475   -4.3385 C   0  0  0  0  0  0  0  0  0  0  0  0
   -5.5716  -11.5847   -4.8568 F   0  0  0  0  0  0  0  0  0  0  0  0
   -7.1331  -12.2173   -3.3992 F   0  0  0  0  0  0  0  0  0  0  0  0
   -5.1631  -13.8410   -3.5895 S   0  0  0  0  0  0  0  0  0  0  0  0
   -4.5002  -14.7106   -4.6006 O   0  0  0  0  0  0  0  0  0  0  0  0
   -4.0980  -13.1763   -2.7657 O   0  0  0  0  0  0  0  0  0  0  0  0
   -6.0362  -14.8119   -2.5180 O   0  0  0  0  0  0  0  0  0  0  0  0
   -6.1174  -13.7125   -6.3990 F   0  0  0  0  0  0  0  0  0  0  0  0
   -7.4964  -14.5452   -4.8604 F   0  0  0  0  0  0  0  0  0  0  0  0
   -8.5717  -11.6447   -4.9048 F   0  0  0  0  0  0  0  0  0  0  0  0
   -7.4271  -11.5439   -6.7757 F   0  0  0  0  0  0  0  0  0  0  0  0
  -10.0328  -13.7708   -5.7775 F   0  0  0  0  0  0  0  0  0  0  0  0
   -8.8324  -13.9884   -7.6380 F   0  0  0  0  0  0  0  0  0  0  0  0
  -11.4121  -12.4344   -7.9244 C   0  0  0  0  0  0  0  0  0  0  0  0
  -12.2509  -11.4765   -8.6591 C   0  0  0  0  0  0  0  0  0  0  0  0
  -13.7029  -11.8356   -8.8167 C   0  0  0  0  0  0  0  0  0  0  0  0
  -13.7729  -12.8947   -9.7260 F   0  0  0  0  0  0  0  0  0  0  0  0
  -14.2807  -12.2679   -7.6549 F   0  0  0  0  0  0  0  0  0  0  0  0
  -14.4255  -10.8012   -9.3971 F   0  0  0  0  0  0  0  0  0  0  0  0
  -12.2615  -10.3001   -7.8503 F   0  0  0  0  0  0  0  0  0  0  0  0
  -11.7360  -11.0555   -9.8501 F   0  0  0  0  0  0  0  0  0  0  0  0
  -11.2760  -13.6182   -8.6695 F   0  0  0  0  0  0  0  0  0  0  0  0
  -12.1610  -12.8360   -6.8012 F   0  0  0  0  0  0  0  0  0  0  0  0
   -9.3539  -11.7093   -8.5788 F   0  0  0  0  0  0  0  0  0  0  0  0
  -10.0851  -10.8521   -6.6730 F   0  0  0  0  0  0  0  0  0  0  0  0
  1  2  1  0
  2  3  1  0
  3  4  1  0
  4  5  1  0
  5  6  1  0
  5  7  1  0
  5  8  1  0
  8  9  2  0
  8 10  2  0
  8 11  1  0
  4 12  1  0
  4 13  1  0
  3 14  1  0
  3 15  1  0
  2 16  1  0
  2 17  1  0
  1 18  1  0
 18 19  1  0
 19 20  1  0
 20 21  1  0
 20 22  1  0
 20 23  1  0
 19 24  1  0
 19 25  1  0
 18 26  1  0
 18 27  1  0
  1 28  1  0
  1 29  1  0
M  END
$$$$
