
     RDKit          3D

 29 28  0  0  0  0  0  0  0  0999 V2000
   -9.1917   -4.2584    9.0746 C   0  0  0  0  0  0  0  0  0  0  0  0
   -9.4370   -5.2863    8.0327 C   0  0  0  0  0  0  0  0  0  0  0  0
  -10.7069   -6.0555    8.2530 C   0  0  0  0  0  0  0  0  0  0  0  0
  -11.1156   -7.0603    7.2536 C   0  0  0  0  0  0  0  0  0  0  0  0
  -12.1119   -8.0667    7.9045 C   0  0  0  0  0  0  0  0  0  0  0  0
  -11.5428   -8.7470    8.9290 F   0  0  0  0  0  0  0  0  0  0  0  0
  -13.1480   -7.3045    8.3759 F   0  0  0  0  0  0  0  0  0  0  0  0
  -12.7244   -9.1189    6.6204 S   0  0  0  0  0  0  0  0  0  0  0  0
  -13.2083   -8.3433    5.4446 O   0  0  0  0  0  0  0  0  0  0  0  0
  -11.6685  -10.0785    6.1524 O   0  0  0  0  0  0  0  0  0  0  0  0
  -13.9885  -10.0739    7.2063 O   0  0  0  0  0  0  0  0  0  0  0  0
  -10.0359   -7.8882    6.8790 F   0  0  0  0  0  0  0  0  0  0  0  0
  -11.6990   -6.6176    6.1160 F   0  0  0  0  0  0  0  0  0  0  0  0
  -11.7762   -5.1570    8.4640 F   0  0  0  0  0  0  0  0  0  0  0  0
  -10.6416   -6.7294    9.4940 F   0  0  0  0  0  0  0  0  0  0  0  0
   -9.5178   -4.7203    6.7574 F   0  0  0  0  0  0  0  0  0  0  0  0
   -8.3430   -6.1616    7.9789 F   0  0  0  0  0  0  0  0  0  0  0  0
   -7.9306   -3.4718    8.9724 C   0  0  0  0  0  0  0  0  0  0  0  0
   -7.7852   -2.2097    9.7118 C   0  0  0  0  0  0  0  0  0  0  0  0
   -6.4248   -1.5687    9.6888 C   0  0  0  0  0  0  0  0  0  0  0  0
   -6.4461   -0.5839    8.6972 F   0  0  0  0  0  0  0  0  0  0  0  0
   -6.1020   -0.9462   10.8630 F   0  0  0  0  0  0  0  0  0  0  0  0
   -5.4421   -2.4681    9.2959 F   0  0  0  0  0  0  0  0  0  0  0  0
   -8.6266   -1.2821    9.0264 F   0  0  0  0  0  0  0  0  0  0  0  0
   -8.2781   -2.2274   10.9837 F   0  0  0  0  0  0  0  0  0  0  0  0
   -6.8233   -4.3005    9.2217 F   0  0  0  0  0  0  0  0  0  0  0  0
   -7.7998   -3.1484    7.6079 F   0  0  0  0  0  0  0  0  0  0  0  0
   -8.9938   -5.0057   10.2790 F   0  0  0  0  0  0  0  0  0  0  0  0
  -10.3225   -3.5312    9.2983 F   0  0  0  0  0  0  0  0  0  0  0  0
  1  2  1  0
  2  3  1  0
  3  4  1  0
  4  5  1  0
  5  6  1  0
  5  7  1  0
  5  8  1  0
  8  9  2  0
  8 10  2  0
  8 11  1  0
  4 12  1  0
  4 13  1  0
  3 14  1  0
  3 15  1  0
  2 16  1  0
  2 17  1  0
  1 18  1  0
 18 19  1  0
 19 20  1  0
 20 21  1  0
 20 22  1  0
 20 23  1  0
 19 24  1  0
 19 25  1  0
 18 26  1  0
 18 27  1  0
  1 28  1  0
  1 29  1  0
M  END
$$$$
