
     RDKit          3D

 29 28  0  0  0  0  0  0  0  0999 V2000
    1.7949   -9.7588    9.0042 C   0  0  0  0  0  0  0  0  0  0  0  0
    2.5654  -11.0269    9.0237 C   0  0  0  0  0  0  0  0  0  0  0  0
    3.0980  -11.4122    7.6743 C   0  0  0  0  0  0  0  0  0  0  0  0
    4.1541  -12.4384    7.5899 C   0  0  0  0  0  0  0  0  0  0  0  0
    4.2072  -13.0130    6.1421 C   0  0  0  0  0  0  0  0  0  0  0  0
    3.0032  -13.4929    5.7466 F   0  0  0  0  0  0  0  0  0  0  0  0
    4.5697  -11.9611    5.3429 F   0  0  0  0  0  0  0  0  0  0  0  0
    5.4940  -14.2267    6.0953 S   0  0  0  0  0  0  0  0  0  0  0  0
    6.8129  -13.6592    6.4910 O   0  0  0  0  0  0  0  0  0  0  0  0
    5.1852  -15.3832    7.0018 O   0  0  0  0  0  0  0  0  0  0  0  0
    5.6204  -14.8788    4.5423 O   0  0  0  0  0  0  0  0  0  0  0  0
    3.8367  -13.5742    8.3649 F   0  0  0  0  0  0  0  0  0  0  0  0
    5.4169  -12.0718    7.9084 F   0  0  0  0  0  0  0  0  0  0  0  0
    3.5255  -10.2562    6.9844 F   0  0  0  0  0  0  0  0  0  0  0  0
    2.0355  -11.8638    6.8585 F   0  0  0  0  0  0  0  0  0  0  0  0
    3.6600  -10.9531    9.8895 F   0  0  0  0  0  0  0  0  0  0  0  0
    1.7579  -12.0518    9.5370 F   0  0  0  0  0  0  0  0  0  0  0  0
    0.8984   -9.4881   10.1630 C   0  0  0  0  0  0  0  0  0  0  0  0
    0.1271   -8.2383   10.2241 C   0  0  0  0  0  0  0  0  0  0  0  0
   -0.9926   -8.0890    9.2309 C   0  0  0  0  0  0  0  0  0  0  0  0
   -1.5292   -6.8094    9.3989 F   0  0  0  0  0  0  0  0  0  0  0  0
   -0.5765   -8.1801    7.9314 F   0  0  0  0  0  0  0  0  0  0  0  0
   -2.0355   -8.9658    9.5003 F   0  0  0  0  0  0  0  0  0  0  0  0
   -0.5258   -8.2699   11.4933 F   0  0  0  0  0  0  0  0  0  0  0  0
    0.8774   -7.0999   10.2653 F   0  0  0  0  0  0  0  0  0  0  0  0
    0.0472  -10.5848   10.3811 F   0  0  0  0  0  0  0  0  0  0  0  0
    1.7370   -9.4914   11.2946 F   0  0  0  0  0  0  0  0  0  0  0  0
    0.8674   -9.9168    7.9257 F   0  0  0  0  0  0  0  0  0  0  0  0
    2.5959   -8.7233    8.6252 F   0  0  0  0  0  0  0  0  0  0  0  0
  1  2  1  0
  2  3  1  0
  3  4  1  0
  4  5  1  0
  5  6  1  0
  5  7  1  0
  5  8  1  0
  8  9  2  0
  8 10  2  0
  8 11  1  0
  4 12  1  0
  4 13  1  0
  3 14  1  0
  3 15  1  0
  2 16  1  0
  2 17  1  0
  1 18  1  0
 18 19  1  0
 19 20  1  0
 20 21  1  0
 20 22  1  0
 20 23  1  0
 19 24  1  0
 19 25  1  0
 18 26  1  0
 18 27  1  0
  1 28  1  0
  1 29  1  0
M  END
$$$$
