
     RDKit          3D

 19 19  0  0  0  0  0  0  0  0999 V2000
   17.4427  -57.2264   29.1248 C   0  0  0  0  0  0  0  0  0  0  0  0
   16.5575  -57.4820   27.8968 C   0  0  0  0  0  0  0  0  0  0  0  0
   15.3966  -56.5358   28.0118 C   0  0  0  0  0  0  0  0  0  0  0  0
   14.4563  -56.5908   26.9402 N   0  0  0  0  0  0  0  0  0  0  0  0
   14.8434  -55.9322   25.7341 C   0  0  0  0  0  0  0  0  0  0  0  0
   14.3402  -56.7790   24.5587 C   0  0  0  0  0  0  0  0  0  0  0  0
   15.5646  -57.2874   23.7919 C   0  0  0  0  0  0  0  0  0  0  0  0
   12.9186  -56.1022   27.4870 S   0  0  0  0  0  0  0  0  0  0  0  0
   11.9726  -56.0430   26.3242 O   0  0  0  0  0  0  0  0  0  0  0  0
   12.3666  -57.1450   28.4226 O   0  0  0  0  0  0  0  0  0  0  0  0
   13.0051  -54.5552   28.2867 C   0  0  0  0  0  0  0  0  0  0  0  0
   12.7234  -53.3592   27.6656 C   0  0  0  0  0  0  0  0  0  0  0  0
   12.8186  -52.1572   28.3780 C   0  0  0  0  0  0  0  0  0  0  0  0
   13.2024  -52.1922   29.7226 C   0  0  0  0  0  0  0  0  0  0  0  0
   13.4849  -53.3932   30.3450 C   0  0  0  0  0  0  0  0  0  0  0  0
   13.3871  -54.5717   29.6309 C   0  0  0  0  0  0  0  0  0  0  0  0
   13.3162  -50.9600   30.5100 C   0  0  0  0  0  0  0  0  0  0  0  0
   13.6963  -50.9792   31.7126 O   0  0  0  0  0  0  0  0  0  0  0  0
   13.0022  -49.7323   29.9349 O   0  0  0  0  0  0  0  0  0  0  0  0
  1  2  1  0
  2  3  1  0
  3  4  1  0
  4  5  1  0
  5  6  1  0
  6  7  1  0
  4  8  1  0
  8  9  2  0
  8 10  2  0
  8 11  1  0
 11 12  1  0
 12 13  2  0
 13 14  1  0
 14 15  2  0
 15 16  1  0
 14 17  1  0
 17 18  2  0
 17 19  1  0
 16 11  2  0
M  END
$$$$
