
     RDKit          3D

 19 19  0  0  0  0  0  0  0  0999 V2000
   13.4765  -53.8726   -2.2740 C   0  0  0  0  0  0  0  0  0  0  0  0
   14.9391  -53.8622   -1.8079 C   0  0  0  0  0  0  0  0  0  0  0  0
   14.9376  -54.4073   -0.4082 C   0  0  0  0  0  0  0  0  0  0  0  0
   15.2594  -53.4652    0.6137 N   0  0  0  0  0  0  0  0  0  0  0  0
   16.6324  -53.4071    1.0008 C   0  0  0  0  0  0  0  0  0  0  0  0
   17.4237  -54.3125    0.0490 C   0  0  0  0  0  0  0  0  0  0  0  0
   18.1476  -53.4128   -0.9570 C   0  0  0  0  0  0  0  0  0  0  0  0
   14.2135  -53.6659    1.9434 S   0  0  0  0  0  0  0  0  0  0  0  0
   14.1857  -55.1123    2.3407 O   0  0  0  0  0  0  0  0  0  0  0  0
   14.7631  -52.9171    3.1285 O   0  0  0  0  0  0  0  0  0  0  0  0
   12.6077  -53.1036    1.5624 C   0  0  0  0  0  0  0  0  0  0  0  0
   12.2707  -51.7728    1.4580 C   0  0  0  0  0  0  0  0  0  0  0  0
   10.9556  -51.4023    1.1502 C   0  0  0  0  0  0  0  0  0  0  0  0
    9.9965  -52.4009    0.9517 C   0  0  0  0  0  0  0  0  0  0  0  0
   10.3359  -53.7363    1.0566 C   0  0  0  0  0  0  0  0  0  0  0  0
   11.6366  -54.0883    1.3608 C   0  0  0  0  0  0  0  0  0  0  0  0
    8.6068  -52.0624    0.6275 C   0  0  0  0  0  0  0  0  0  0  0  0
    8.2431  -50.8673    0.4530 O   0  0  0  0  0  0  0  0  0  0  0  0
    7.6533  -53.0687    0.5052 O   0  0  0  0  0  0  0  0  0  0  0  0
  1  2  1  0
  2  3  1  0
  3  4  1  0
  4  5  1  0
  5  6  1  0
  6  7  1  0
  4  8  1  0
  8  9  2  0
  8 10  2  0
  8 11  1  0
 11 12  1  0
 12 13  2  0
 13 14  1  0
 14 15  2  0
 15 16  1  0
 14 17  1  0
 17 18  2  0
 17 19  1  0
 16 11  2  0
M  END
$$$$
