
     RDKit          3D

 21 22  0  0  0  0  0  0  0  0999 V2000
    5.0965  -46.9514   -2.0944 C   0  0  0  0  0  0  0  0  0  0  0  0
    6.2351  -47.1488   -1.1398 C   0  0  0  0  0  0  0  0  0  0  0  0
    6.4183  -48.2294   -0.5286 O   0  0  0  0  0  0  0  0  0  0  0  0
    7.1539  -46.1028   -0.8952 O   0  0  0  0  0  0  0  0  0  0  0  0
    8.2445  -46.4279   -0.1206 C   0  0  0  0  0  0  0  0  0  0  0  0
    8.9218  -47.5990   -0.4683 C   0  0  0  0  0  0  0  0  0  0  0  0
   10.0294  -48.0286    0.2294 C   0  0  0  0  0  0  0  0  0  0  0  0
   10.4415  -47.2514    1.2877 C   0  0  0  0  0  0  0  0  0  0  0  0
    9.7702  -46.0991    1.6261 C   0  0  0  0  0  0  0  0  0  0  0  0
    8.6446  -45.6558    0.9238 C   0  0  0  0  0  0  0  0  0  0  0  0
    7.9819  -44.4458    1.3769 C   0  0  0  0  0  0  0  0  0  0  0  0
    7.5640  -43.6304    0.4852 O   0  0  0  0  0  0  0  0  0  0  0  0
    7.7500  -44.0775    2.7068 N   0  0  0  0  0  0  0  0  0  0  0  0
    7.3003  -42.7883    3.0042 C   0  0  0  0  0  0  0  0  0  0  0  0
    7.6799  -41.5586    2.7346 N   0  0  0  0  0  0  0  0  0  0  0  0
    7.0389  -40.5353    3.1651 C   0  0  0  0  0  0  0  0  0  0  0  0
    5.9074  -40.7581    3.9411 C   0  0  0  0  0  0  0  0  0  0  0  0
    5.7564  -42.5014    4.0584 S   0  0  0  0  0  0  0  0  0  0  0  0
    5.0285  -39.8161    4.5350 N   0  0  0  0  0  0  0  0  0  0  0  0
    5.3449  -38.6111    4.5260 O   0  0  0  0  0  0  0  0  0  0  0  0
    3.8664  -40.2800    5.0934 O   0  0  0  0  0  0  0  0  0  0  0  0
  1  2  1  0
  2  3  2  0
  2  4  1  0
  4  5  1  0
  5  6  2  0
  6  7  1  0
  7  8  2  0
  8  9  1  0
  9 10  2  0
 10 11  1  0
 11 12  2  0
 11 13  1  0
 13 14  1  0
 14 15  2  0
 15 16  1  0
 16 17  2  0
 17 18  1  0
 17 19  1  0
 19 20  2  0
 19 21  1  0
 10  5  1  0
 18 14  1  0
M  CHG  2  19   1  21  -1
M  END
$$$$
