
     RDKit          3D

 21 22  0  0  0  0  0  0  0  0999 V2000
   36.6162  -52.1692   15.7463 C   0  0  0  0  0  0  0  0  0  0  0  0
   36.9091  -52.4458   14.3026 C   0  0  0  0  0  0  0  0  0  0  0  0
   38.0018  -52.1360   13.7687 O   0  0  0  0  0  0  0  0  0  0  0  0
   35.9442  -53.0760   13.4842 O   0  0  0  0  0  0  0  0  0  0  0  0
   36.3719  -53.4554   12.2319 C   0  0  0  0  0  0  0  0  0  0  0  0
   37.7352  -53.7301   12.1019 C   0  0  0  0  0  0  0  0  0  0  0  0
   38.2832  -54.1213   10.8998 C   0  0  0  0  0  0  0  0  0  0  0  0
   37.4262  -54.2303    9.8286 C   0  0  0  0  0  0  0  0  0  0  0  0
   36.0842  -53.9580    9.9622 C   0  0  0  0  0  0  0  0  0  0  0  0
   35.5196  -53.5596   11.1785 C   0  0  0  0  0  0  0  0  0  0  0  0
   34.0991  -53.2606   11.2138 C   0  0  0  0  0  0  0  0  0  0  0  0
   33.5806  -52.9833   12.3490 O   0  0  0  0  0  0  0  0  0  0  0  0
   33.2293  -53.2433   10.1177 N   0  0  0  0  0  0  0  0  0  0  0  0
   31.8672  -53.0002   10.3132 C   0  0  0  0  0  0  0  0  0  0  0  0
   30.7707  -53.0741    9.5913 N   0  0  0  0  0  0  0  0  0  0  0  0
   29.6184  -52.7736   10.0656 C   0  0  0  0  0  0  0  0  0  0  0  0
   29.5505  -52.3581   11.3903 C   0  0  0  0  0  0  0  0  0  0  0  0
   31.2020  -52.3998   11.9788 S   0  0  0  0  0  0  0  0  0  0  0  0
   28.4173  -51.9722   12.1515 N   0  0  0  0  0  0  0  0  0  0  0  0
   28.5756  -51.6565   13.3463 O   0  0  0  0  0  0  0  0  0  0  0  0
   27.1952  -51.9653   11.5318 O   0  0  0  0  0  0  0  0  0  0  0  0
  1  2  1  0
  2  3  2  0
  2  4  1  0
  4  5  1  0
  5  6  2  0
  6  7  1  0
  7  8  2  0
  8  9  1  0
  9 10  2  0
 10 11  1  0
 11 12  2  0
 11 13  1  0
 13 14  1  0
 14 15  2  0
 15 16  1  0
 16 17  2  0
 17 18  1  0
 17 19  1  0
 19 20  2  0
 19 21  1  0
 10  5  1  0
 18 14  1  0
M  CHG  2  19   1  21  -1
M  END
$$$$
