
     RDKit          3D

 21 22  0  0  0  0  0  0  0  0999 V2000
   13.7891  -49.3377   -6.4747 C   0  0  0  0  0  0  0  0  0  0  0  0
   14.7175  -48.1763   -6.6640 C   0  0  0  0  0  0  0  0  0  0  0  0
   15.2287  -47.9007   -7.7765 O   0  0  0  0  0  0  0  0  0  0  0  0
   15.0509  -47.3409   -5.5735 O   0  0  0  0  0  0  0  0  0  0  0  0
   15.7623  -46.2034   -5.8817 C   0  0  0  0  0  0  0  0  0  0  0  0
   15.0371  -45.1595   -6.4609 C   0  0  0  0  0  0  0  0  0  0  0  0
   15.6364  -43.9696   -6.8117 C   0  0  0  0  0  0  0  0  0  0  0  0
   16.9855  -43.8532   -6.5659 C   0  0  0  0  0  0  0  0  0  0  0  0
   17.6950  -44.8848   -5.9956 C   0  0  0  0  0  0  0  0  0  0  0  0
   17.0949  -46.0964   -5.6370 C   0  0  0  0  0  0  0  0  0  0  0  0
   17.9323  -47.1399   -5.0729 C   0  0  0  0  0  0  0  0  0  0  0  0
   17.3980  -47.9344   -4.2255 O   0  0  0  0  0  0  0  0  0  0  0  0
   19.2812  -47.3683   -5.3670 N   0  0  0  0  0  0  0  0  0  0  0  0
   20.0187  -48.2716   -4.5971 C   0  0  0  0  0  0  0  0  0  0  0  0
   19.8287  -48.9665   -3.4971 N   0  0  0  0  0  0  0  0  0  0  0  0
   20.7280  -49.7421   -3.0145 C   0  0  0  0  0  0  0  0  0  0  0  0
   21.9369  -49.8353   -3.6943 C   0  0  0  0  0  0  0  0  0  0  0  0
   21.7785  -48.7704   -5.0787 S   0  0  0  0  0  0  0  0  0  0  0  0
   23.0840  -50.6088   -3.3807 N   0  0  0  0  0  0  0  0  0  0  0  0
   23.1370  -51.1836   -2.2765 O   0  0  0  0  0  0  0  0  0  0  0  0
   24.0847  -50.6871   -4.3133 O   0  0  0  0  0  0  0  0  0  0  0  0
  1  2  1  0
  2  3  2  0
  2  4  1  0
  4  5  1  0
  5  6  2  0
  6  7  1  0
  7  8  2  0
  8  9  1  0
  9 10  2  0
 10 11  1  0
 11 12  2  0
 11 13  1  0
 13 14  1  0
 14 15  2  0
 15 16  1  0
 16 17  2  0
 17 18  1  0
 17 19  1  0
 19 20  2  0
 19 21  1  0
 10  5  1  0
 18 14  1  0
M  CHG  2  19   1  21  -1
M  END
$$$$
