
     RDKit          3D

 21 22  0  0  0  0  0  0  0  0999 V2000
   15.4091  -62.1560   42.8964 C   0  0  0  0  0  0  0  0  0  0  0  0
   16.5158  -63.0186   43.4236 C   0  0  0  0  0  0  0  0  0  0  0  0
   16.7949  -63.0791   44.6456 O   0  0  0  0  0  0  0  0  0  0  0  0
   17.2928  -63.8045   42.5422 O   0  0  0  0  0  0  0  0  0  0  0  0
   18.0969  -64.7538   43.1316 C   0  0  0  0  0  0  0  0  0  0  0  0
   17.7743  -65.1079   44.4437 C   0  0  0  0  0  0  0  0  0  0  0  0
   18.5026  -66.0480   45.1394 C   0  0  0  0  0  0  0  0  0  0  0  0
   19.5658  -66.6254   44.4835 C   0  0  0  0  0  0  0  0  0  0  0  0
   19.8794  -66.2723   43.1912 C   0  0  0  0  0  0  0  0  0  0  0  0
   19.1459  -65.3186   42.4777 C   0  0  0  0  0  0  0  0  0  0  0  0
   19.5740  -64.9864   41.1306 C   0  0  0  0  0  0  0  0  0  0  0  0
   18.7543  -64.3415   40.3911 O   0  0  0  0  0  0  0  0  0  0  0  0
   20.8085  -65.3029   40.5526 N   0  0  0  0  0  0  0  0  0  0  0  0
   21.0670  -64.9502   39.2254 C   0  0  0  0  0  0  0  0  0  0  0  0
   22.0447  -65.1254   38.3638 N   0  0  0  0  0  0  0  0  0  0  0  0
   21.9930  -64.6657   37.1683 C   0  0  0  0  0  0  0  0  0  0  0  0
   20.8550  -63.9614   36.7929 C   0  0  0  0  0  0  0  0  0  0  0  0
   19.8190  -63.9580   38.2079 S   0  0  0  0  0  0  0  0  0  0  0  0
   20.5463  -63.3555   35.5479 N   0  0  0  0  0  0  0  0  0  0  0  0
   19.4362  -62.8079   35.4055 O   0  0  0  0  0  0  0  0  0  0  0  0
   21.4899  -63.4019   34.5555 O   0  0  0  0  0  0  0  0  0  0  0  0
  1  2  1  0
  2  3  2  0
  2  4  1  0
  4  5  1  0
  5  6  2  0
  6  7  1  0
  7  8  2  0
  8  9  1  0
  9 10  2  0
 10 11  1  0
 11 12  2  0
 11 13  1  0
 13 14  1  0
 14 15  2  0
 15 16  1  0
 16 17  2  0
 17 18  1  0
 17 19  1  0
 19 20  2  0
 19 21  1  0
 10  5  1  0
 18 14  1  0
M  CHG  2  19   1  21  -1
M  END
$$$$
