
     RDKit          3D

 21 22  0  0  0  0  0  0  0  0999 V2000
   36.8594  -31.8682   18.9664 C   0  0  0  0  0  0  0  0  0  0  0  0
   36.5833  -32.8975   17.9123 C   0  0  0  0  0  0  0  0  0  0  0  0
   37.2477  -32.9642   16.8497 O   0  0  0  0  0  0  0  0  0  0  0  0
   35.5461  -33.8417   18.0878 O   0  0  0  0  0  0  0  0  0  0  0  0
   35.4490  -34.8165   17.1206 C   0  0  0  0  0  0  0  0  0  0  0  0
   36.5662  -34.9848   16.2993 C   0  0  0  0  0  0  0  0  0  0  0  0
   36.5915  -35.9296   15.2968 C   0  0  0  0  0  0  0  0  0  0  0  0
   35.4644  -36.7034   15.1389 C   0  0  0  0  0  0  0  0  0  0  0  0
   34.3666  -36.5328   15.9504 C   0  0  0  0  0  0  0  0  0  0  0  0
   34.3320  -35.5758   16.9701 C   0  0  0  0  0  0  0  0  0  0  0  0
   33.1158  -35.4461   17.7526 C   0  0  0  0  0  0  0  0  0  0  0  0
   33.0632  -34.5017   18.6128 O   0  0  0  0  0  0  0  0  0  0  0  0
   31.9805  -36.2589   17.6588 N   0  0  0  0  0  0  0  0  0  0  0  0
   30.8965  -36.0426   18.5136 C   0  0  0  0  0  0  0  0  0  0  0  0
   29.8003  -36.6874   18.8478 N   0  0  0  0  0  0  0  0  0  0  0  0
   28.9618  -36.2167   19.6954 C   0  0  0  0  0  0  0  0  0  0  0  0
   29.2420  -34.9811   20.2673 C   0  0  0  0  0  0  0  0  0  0  0  0
   30.7662  -34.4746   19.5632 S   0  0  0  0  0  0  0  0  0  0  0  0
   28.4922  -34.2438   21.2195 N   0  0  0  0  0  0  0  0  0  0  0  0
   28.9320  -33.1453   21.6097 O   0  0  0  0  0  0  0  0  0  0  0  0
   27.3128  -34.7787   21.6670 O   0  0  0  0  0  0  0  0  0  0  0  0
  1  2  1  0
  2  3  2  0
  2  4  1  0
  4  5  1  0
  5  6  2  0
  6  7  1  0
  7  8  2  0
  8  9  1  0
  9 10  2  0
 10 11  1  0
 11 12  2  0
 11 13  1  0
 13 14  1  0
 14 15  2  0
 15 16  1  0
 16 17  2  0
 17 18  1  0
 17 19  1  0
 19 20  2  0
 19 21  1  0
 10  5  1  0
 18 14  1  0
M  CHG  2  19   1  21  -1
M  END
$$$$
