
     RDKit          3D

  5  4  0  0  0  0  0  0  0  0999 V2000
    1.6139    1.4844  -11.2658 C   0  0  0  0  0  0  0  0  0  0  0  0
    1.1964    0.0607  -11.3208 C   0  0  0  0  0  0  0  0  0  0  0  0
    0.7569   -0.3537  -12.4191 O   0  0  0  0  0  0  0  0  0  0  0  0
    1.2618   -0.7995  -10.2718 O   0  0  0  0  0  0  0  0  0  0  0  0
    1.3244    2.0149   -9.9945 F   0  0  0  0  0  0  0  0  0  0  0  0
  1  2  1  0
  2  3  2  0
  2  4  1  0
  1  5  1  0
M  END
$$$$
