
     RDKit          3D

  5  4  0  0  0  0  0  0  0  0999 V2000
   -6.8303  -10.6530   -0.3332 C   0  0  0  0  0  0  0  0  0  0  0  0
   -7.4512  -11.3420   -1.4924 C   0  0  0  0  0  0  0  0  0  0  0  0
   -8.4927  -12.0004   -1.2625 O   0  0  0  0  0  0  0  0  0  0  0  0
   -6.9655  -11.3008   -2.7601 O   0  0  0  0  0  0  0  0  0  0  0  0
   -7.6068  -10.8716    0.8203 F   0  0  0  0  0  0  0  0  0  0  0  0
  1  2  1  0
  2  3  2  0
  2  4  1  0
  1  5  1  0
M  END
$$$$
