
     RDKit          3D

  5  4  0  0  0  0  0  0  0  0999 V2000
  -12.6028    3.0140   -9.9650 C   0  0  0  0  0  0  0  0  0  0  0  0
  -13.8665    2.3544  -10.3802 C   0  0  0  0  0  0  0  0  0  0  0  0
  -14.8296    3.1082  -10.6547 O   0  0  0  0  0  0  0  0  0  0  0  0
  -14.0349    1.0102  -10.4771 O   0  0  0  0  0  0  0  0  0  0  0  0
  -12.7681    4.4117   -9.9859 F   0  0  0  0  0  0  0  0  0  0  0  0
  1  2  1  0
  2  3  2  0
  2  4  1  0
  1  5  1  0
M  END
$$$$
