
     RDKit          3D

  5  4  0  0  0  0  0  0  0  0999 V2000
  -14.6773   -0.0807   -7.0866 C   0  0  0  0  0  0  0  0  0  0  0  0
  -15.6553    0.9650   -7.4793 C   0  0  0  0  0  0  0  0  0  0  0  0
  -15.5766    2.0620   -6.8780 O   0  0  0  0  0  0  0  0  0  0  0  0
  -16.6099    0.8043   -8.4320 O   0  0  0  0  0  0  0  0  0  0  0  0
  -13.7925    0.4358   -6.1213 F   0  0  0  0  0  0  0  0  0  0  0  0
  1  2  1  0
  2  3  2  0
  2  4  1  0
  1  5  1  0
M  END
$$$$
