
     RDKit          3D

 29 28  0  0  0  0  0  0  0  0999 V2000
   -1.6016    4.0601  -12.0648 C   0  0  0  0  0  0  0  0  0  0  0  0
   -2.7743    4.9946  -12.2631 C   0  0  0  0  0  0  0  0  0  0  0  0
   -2.6135    6.0668  -11.2125 C   0  0  0  0  0  0  0  0  0  0  0  0
   -3.8036    6.8504  -10.8507 C   0  0  0  0  0  0  0  0  0  0  0  0
   -3.6961    7.7945   -9.6997 C   0  0  0  0  0  0  0  0  0  0  0  0
   -2.5747    8.6263   -9.9877 F   0  0  0  0  0  0  0  0  0  0  0  0
   -3.2514    7.1245   -8.5531 F   0  0  0  0  0  0  0  0  0  0  0  0
   -5.0961    8.7855   -9.3907 S   0  0  0  0  0  0  0  0  0  0  0  0
   -5.3865    9.6001  -10.6326 O   0  0  0  0  0  0  0  0  0  0  0  0
   -6.3005    7.8640   -9.2309 O   0  0  0  0  0  0  0  0  0  0  0  0
   -5.0431    9.7262   -8.0374 O   0  0  0  0  0  0  0  0  0  0  0  0
   -4.8128    5.8973  -10.5593 F   0  0  0  0  0  0  0  0  0  0  0  0
   -4.3480    7.5122  -11.9752 F   0  0  0  0  0  0  0  0  0  0  0  0
   -1.5545    6.9100  -11.5083 F   0  0  0  0  0  0  0  0  0  0  0  0
   -2.2002    5.3422  -10.0569 F   0  0  0  0  0  0  0  0  0  0  0  0
   -3.9249    4.2776  -11.9003 F   0  0  0  0  0  0  0  0  0  0  0  0
   -2.8498    5.4128  -13.5434 F   0  0  0  0  0  0  0  0  0  0  0  0
   -1.7103    2.7145  -12.6641 C   0  0  0  0  0  0  0  0  0  0  0  0
   -0.6120    1.7308  -12.3900 C   0  0  0  0  0  0  0  0  0  0  0  0
   -1.0892    0.3371  -12.8482 C   0  0  0  0  0  0  0  0  0  0  0  0
   -0.0076   -0.5273  -12.8233 F   0  0  0  0  0  0  0  0  0  0  0  0
   -1.6355    0.3545  -14.0941 F   0  0  0  0  0  0  0  0  0  0  0  0
   -2.0162   -0.1741  -11.9615 F   0  0  0  0  0  0  0  0  0  0  0  0
   -0.4013    1.6013  -11.0081 F   0  0  0  0  0  0  0  0  0  0  0  0
    0.5856    2.0112  -12.9660 F   0  0  0  0  0  0  0  0  0  0  0  0
   -1.8375    2.8641  -14.0422 F   0  0  0  0  0  0  0  0  0  0  0  0
   -2.8989    2.0656  -12.2594 F   0  0  0  0  0  0  0  0  0  0  0  0
   -0.4150    4.6684  -12.4601 F   0  0  0  0  0  0  0  0  0  0  0  0
   -1.4669    3.9139  -10.6821 F   0  0  0  0  0  0  0  0  0  0  0  0
  1  2  1  0
  2  3  1  0
  3  4  1  0
  4  5  1  0
  5  6  1  0
  5  7  1  0
  5  8  1  0
  8  9  2  0
  8 10  2  0
  8 11  1  0
  4 12  1  0
  4 13  1  0
  3 14  1  0
  3 15  1  0
  2 16  1  0
  2 17  1  0
  1 18  1  0
 18 19  1  0
 19 20  1  0
 20 21  1  0
 20 22  1  0
 20 23  1  0
 19 24  1  0
 19 25  1  0
 18 26  1  0
 18 27  1  0
  1 28  1  0
  1 29  1  0
M  END
$$$$
