
     RDKit          3D

 29 28  0  0  0  0  0  0  0  0999 V2000
   -2.4098    6.4682  -10.3253 C   0  0  0  0  0  0  0  0  0  0  0  0
   -2.8161    5.1795  -11.0049 C   0  0  0  0  0  0  0  0  0  0  0  0
   -1.6010    4.2868  -10.9292 C   0  0  0  0  0  0  0  0  0  0  0  0
   -1.6625    2.9917  -11.6219 C   0  0  0  0  0  0  0  0  0  0  0  0
   -0.4614    2.1076  -11.5601 C   0  0  0  0  0  0  0  0  0  0  0  0
   -0.1944    1.9178  -10.1727 F   0  0  0  0  0  0  0  0  0  0  0  0
    0.6840    2.8041  -11.9656 F   0  0  0  0  0  0  0  0  0  0  0  0
   -0.6113    0.5587  -12.3448 S   0  0  0  0  0  0  0  0  0  0  0  0
    0.7175   -0.1581  -12.2414 O   0  0  0  0  0  0  0  0  0  0  0  0
   -1.5833   -0.2899  -11.5321 O   0  0  0  0  0  0  0  0  0  0  0  0
   -1.1826    0.5735  -13.8915 O   0  0  0  0  0  0  0  0  0  0  0  0
   -1.9265    3.2991  -12.9811 F   0  0  0  0  0  0  0  0  0  0  0  0
   -2.8209    2.2666  -11.2599 F   0  0  0  0  0  0  0  0  0  0  0  0
   -1.1824    4.1123   -9.6199 F   0  0  0  0  0  0  0  0  0  0  0  0
   -0.5775    5.0636  -11.5462 F   0  0  0  0  0  0  0  0  0  0  0  0
   -2.9828    5.4786  -12.3660 F   0  0  0  0  0  0  0  0  0  0  0  0
   -3.9563    4.6905  -10.4750 F   0  0  0  0  0  0  0  0  0  0  0  0
   -3.4504    7.5070  -10.1851 C   0  0  0  0  0  0  0  0  0  0  0  0
   -3.0571    8.8200   -9.5765 C   0  0  0  0  0  0  0  0  0  0  0  0
   -4.3271    9.6844   -9.4356 C   0  0  0  0  0  0  0  0  0  0  0  0
   -4.9985    9.6790  -10.6469 F   0  0  0  0  0  0  0  0  0  0  0  0
   -4.0505   10.9651   -9.0691 F   0  0  0  0  0  0  0  0  0  0  0  0
   -5.1902    9.1318   -8.5101 F   0  0  0  0  0  0  0  0  0  0  0  0
   -2.2289    9.5396  -10.4522 F   0  0  0  0  0  0  0  0  0  0  0  0
   -2.4246    8.7460   -8.3769 F   0  0  0  0  0  0  0  0  0  0  0  0
   -4.4991    6.9710   -9.4431 F   0  0  0  0  0  0  0  0  0  0  0  0
   -4.0222    7.8343  -11.4355 F   0  0  0  0  0  0  0  0  0  0  0  0
   -1.8189    6.2098   -9.0930 F   0  0  0  0  0  0  0  0  0  0  0  0
   -1.3713    6.9907  -11.0998 F   0  0  0  0  0  0  0  0  0  0  0  0
  1  2  1  0
  2  3  1  0
  3  4  1  0
  4  5  1  0
  5  6  1  0
  5  7  1  0
  5  8  1  0
  8  9  2  0
  8 10  2  0
  8 11  1  0
  4 12  1  0
  4 13  1  0
  3 14  1  0
  3 15  1  0
  2 16  1  0
  2 17  1  0
  1 18  1  0
 18 19  1  0
 19 20  1  0
 20 21  1  0
 20 22  1  0
 20 23  1  0
 19 24  1  0
 19 25  1  0
 18 26  1  0
 18 27  1  0
  1 28  1  0
  1 29  1  0
M  END
$$$$
