
     RDKit          3D

 29 28  0  0  0  0  0  0  0  0999 V2000
   -1.4942    3.9085  -11.5465 C   0  0  0  0  0  0  0  0  0  0  0  0
   -2.3681    5.0720  -11.9594 C   0  0  0  0  0  0  0  0  0  0  0  0
   -2.4747    5.9469  -10.7338 C   0  0  0  0  0  0  0  0  0  0  0  0
   -3.5207    6.9797  -10.7225 C   0  0  0  0  0  0  0  0  0  0  0  0
   -3.6865    7.7942   -9.4828 C   0  0  0  0  0  0  0  0  0  0  0  0
   -2.4223    8.4134   -9.2574 F   0  0  0  0  0  0  0  0  0  0  0  0
   -3.7882    6.9648   -8.3588 F   0  0  0  0  0  0  0  0  0  0  0  0
   -4.9343    9.0100   -9.5280 S   0  0  0  0  0  0  0  0  0  0  0  0
   -6.2618    8.3217   -9.7605 O   0  0  0  0  0  0  0  0  0  0  0  0
   -5.0450    9.6244   -8.1367 O   0  0  0  0  0  0  0  0  0  0  0  0
   -4.6994   10.2617  -10.5754 O   0  0  0  0  0  0  0  0  0  0  0  0
   -4.7358    6.2936  -10.9769 F   0  0  0  0  0  0  0  0  0  0  0  0
   -3.4248    7.8246  -11.8520 F   0  0  0  0  0  0  0  0  0  0  0  0
   -1.2492    6.5003  -10.3992 F   0  0  0  0  0  0  0  0  0  0  0  0
   -2.7629    5.0224   -9.6880 F   0  0  0  0  0  0  0  0  0  0  0  0
   -3.6553    4.5530  -12.1682 F   0  0  0  0  0  0  0  0  0  0  0  0
   -1.8968    5.6589  -13.0789 F   0  0  0  0  0  0  0  0  0  0  0  0
   -1.3314    2.8143  -12.5253 C   0  0  0  0  0  0  0  0  0  0  0  0
   -0.8017    1.5010  -12.0317 C   0  0  0  0  0  0  0  0  0  0  0  0
   -0.9791    0.4582  -13.1547 C   0  0  0  0  0  0  0  0  0  0  0  0
    0.2136    0.3557  -13.8510 F   0  0  0  0  0  0  0  0  0  0  0  0
   -1.9859    0.7784  -14.0119 F   0  0  0  0  0  0  0  0  0  0  0  0
   -1.2271   -0.7914  -12.6218 F   0  0  0  0  0  0  0  0  0  0  0  0
   -1.5858    1.0221  -10.9704 F   0  0  0  0  0  0  0  0  0  0  0  0
    0.4924    1.5066  -11.6195 F   0  0  0  0  0  0  0  0  0  0  0  0
   -0.5045    3.2693  -13.5486 F   0  0  0  0  0  0  0  0  0  0  0  0
   -2.5558    2.5055  -13.1599 F   0  0  0  0  0  0  0  0  0  0  0  0
   -0.2504    4.3561  -11.1141 F   0  0  0  0  0  0  0  0  0  0  0  0
   -2.0872    3.3822  -10.3964 F   0  0  0  0  0  0  0  0  0  0  0  0
  1  2  1  0
  2  3  1  0
  3  4  1  0
  4  5  1  0
  5  6  1  0
  5  7  1  0
  5  8  1  0
  8  9  2  0
  8 10  2  0
  8 11  1  0
  4 12  1  0
  4 13  1  0
  3 14  1  0
  3 15  1  0
  2 16  1  0
  2 17  1  0
  1 18  1  0
 18 19  1  0
 19 20  1  0
 20 21  1  0
 20 22  1  0
 20 23  1  0
 19 24  1  0
 19 25  1  0
 18 26  1  0
 18 27  1  0
  1 28  1  0
  1 29  1  0
M  END
$$$$
