
     RDKit          3D

 29 28  0  0  0  0  0  0  0  0999 V2000
   -3.6186    9.0142   -9.8389 C   0  0  0  0  0  0  0  0  0  0  0  0
   -3.6822    7.5191   -9.6183 C   0  0  0  0  0  0  0  0  0  0  0  0
   -2.6611    6.9317  -10.5624 C   0  0  0  0  0  0  0  0  0  0  0  0
   -2.3211    5.5107  -10.4003 C   0  0  0  0  0  0  0  0  0  0  0  0
   -1.3740    4.9018  -11.3802 C   0  0  0  0  0  0  0  0  0  0  0  0
   -0.2580    5.7869  -11.4375 F   0  0  0  0  0  0  0  0  0  0  0  0
   -1.8759    5.0109  -12.6831 F   0  0  0  0  0  0  0  0  0  0  0  0
   -0.8243    3.2896  -11.0114 S   0  0  0  0  0  0  0  0  0  0  0  0
    0.1504    2.8611  -12.0868 O   0  0  0  0  0  0  0  0  0  0  0  0
    0.0017    3.3541   -9.7312 O   0  0  0  0  0  0  0  0  0  0  0  0
   -1.9953    2.1569  -10.7568 O   0  0  0  0  0  0  0  0  0  0  0  0
   -3.5542    4.8135  -10.4723 F   0  0  0  0  0  0  0  0  0  0  0  0
   -1.9058    5.2263   -9.0792 F   0  0  0  0  0  0  0  0  0  0  0  0
   -1.5088    7.7001  -10.6031 F   0  0  0  0  0  0  0  0  0  0  0  0
   -3.2610    7.0932  -11.8452 F   0  0  0  0  0  0  0  0  0  0  0  0
   -4.9310    7.0952  -10.0986 F   0  0  0  0  0  0  0  0  0  0  0  0
   -3.5391    7.2153   -8.3118 F   0  0  0  0  0  0  0  0  0  0  0  0
   -4.3390    9.8643   -8.8693 C   0  0  0  0  0  0  0  0  0  0  0  0
   -4.2258   11.3523   -9.0171 C   0  0  0  0  0  0  0  0  0  0  0  0
   -4.8636   12.0089   -7.7752 C   0  0  0  0  0  0  0  0  0  0  0  0
   -5.0240   13.3612   -8.0273 F   0  0  0  0  0  0  0  0  0  0  0  0
   -4.1175   11.8361   -6.6507 F   0  0  0  0  0  0  0  0  0  0  0  0
   -6.1287   11.5016   -7.5539 F   0  0  0  0  0  0  0  0  0  0  0  0
   -5.0022   11.7997  -10.0977 F   0  0  0  0  0  0  0  0  0  0  0  0
   -2.9666   11.8322   -9.1865 F   0  0  0  0  0  0  0  0  0  0  0  0
   -3.9180    9.5127   -7.5898 F   0  0  0  0  0  0  0  0  0  0  0  0
   -5.7264    9.5949   -8.8804 F   0  0  0  0  0  0  0  0  0  0  0  0
   -2.2997    9.4378   -9.9632 F   0  0  0  0  0  0  0  0  0  0  0  0
   -4.1684    9.2314  -11.1045 F   0  0  0  0  0  0  0  0  0  0  0  0
  1  2  1  0
  2  3  1  0
  3  4  1  0
  4  5  1  0
  5  6  1  0
  5  7  1  0
  5  8  1  0
  8  9  2  0
  8 10  2  0
  8 11  1  0
  4 12  1  0
  4 13  1  0
  3 14  1  0
  3 15  1  0
  2 16  1  0
  2 17  1  0
  1 18  1  0
 18 19  1  0
 19 20  1  0
 20 21  1  0
 20 22  1  0
 20 23  1  0
 19 24  1  0
 19 25  1  0
 18 26  1  0
 18 27  1  0
  1 28  1  0
  1 29  1  0
M  END
$$$$
