
     RDKit          3D

 29 28  0  0  0  0  0  0  0  0999 V2000
  -10.4439  -12.0615   -5.7552 C   0  0  0  0  0  0  0  0  0  0  0  0
  -10.5847  -10.9986   -6.8221 C   0  0  0  0  0  0  0  0  0  0  0  0
   -9.5110   -9.9818   -6.5179 C   0  0  0  0  0  0  0  0  0  0  0  0
   -9.4354   -8.7923   -7.3784 C   0  0  0  0  0  0  0  0  0  0  0  0
   -8.5199   -7.6879   -6.9663 C   0  0  0  0  0  0  0  0  0  0  0  0
   -7.2375   -8.2901   -6.8077 F   0  0  0  0  0  0  0  0  0  0  0  0
   -8.7955   -7.2836   -5.6541 F   0  0  0  0  0  0  0  0  0  0  0  0
   -8.4024   -6.3416   -8.0669 S   0  0  0  0  0  0  0  0  0  0  0  0
   -8.4276   -6.8791   -9.4813 O   0  0  0  0  0  0  0  0  0  0  0  0
   -9.6754   -5.5124   -7.9356 O   0  0  0  0  0  0  0  0  0  0  0  0
   -7.1419   -5.3062   -7.8254 O   0  0  0  0  0  0  0  0  0  0  0  0
  -10.7575   -8.2825   -7.4402 F   0  0  0  0  0  0  0  0  0  0  0  0
   -9.1988   -9.1444   -8.7271 F   0  0  0  0  0  0  0  0  0  0  0  0
   -8.2649  -10.5785   -6.4120 F   0  0  0  0  0  0  0  0  0  0  0  0
   -9.8280   -9.5464   -5.1983 F   0  0  0  0  0  0  0  0  0  0  0  0
  -11.8039  -10.3465   -6.5807 F   0  0  0  0  0  0  0  0  0  0  0  0
  -10.5651  -11.5442   -8.0556 F   0  0  0  0  0  0  0  0  0  0  0  0
  -11.5809  -12.9880   -5.5804 C   0  0  0  0  0  0  0  0  0  0  0  0
  -11.4061  -14.1491   -4.6475 C   0  0  0  0  0  0  0  0  0  0  0  0
  -12.7137  -14.9677   -4.6482 C   0  0  0  0  0  0  0  0  0  0  0  0
  -13.6536  -14.2931   -5.4094 F   0  0  0  0  0  0  0  0  0  0  0  0
  -13.2010  -15.1766   -3.3952 F   0  0  0  0  0  0  0  0  0  0  0  0
  -12.5208  -16.1897   -5.2616 F   0  0  0  0  0  0  0  0  0  0  0  0
  -11.2647  -13.7003   -3.3249 F   0  0  0  0  0  0  0  0  0  0  0  0
  -10.3583  -14.9693   -4.9195 F   0  0  0  0  0  0  0  0  0  0  0  0
  -11.9369  -13.4767   -6.8343 F   0  0  0  0  0  0  0  0  0  0  0  0
  -12.7307  -12.3095   -5.1168 F   0  0  0  0  0  0  0  0  0  0  0  0
   -9.2628  -12.7760   -5.9250 F   0  0  0  0  0  0  0  0  0  0  0  0
  -10.2555  -11.3689   -4.5568 F   0  0  0  0  0  0  0  0  0  0  0  0
  1  2  1  0
  2  3  1  0
  3  4  1  0
  4  5  1  0
  5  6  1  0
  5  7  1  0
  5  8  1  0
  8  9  2  0
  8 10  2  0
  8 11  1  0
  4 12  1  0
  4 13  1  0
  3 14  1  0
  3 15  1  0
  2 16  1  0
  2 17  1  0
  1 18  1  0
 18 19  1  0
 19 20  1  0
 20 21  1  0
 20 22  1  0
 20 23  1  0
 19 24  1  0
 19 25  1  0
 18 26  1  0
 18 27  1  0
  1 28  1  0
  1 29  1  0
M  END
$$$$
