
     RDKit          3D

 29 28  0  0  0  0  0  0  0  0999 V2000
   -2.4468    6.3295  -10.5925 C   0  0  0  0  0  0  0  0  0  0  0  0
   -2.8237    5.0934  -11.3785 C   0  0  0  0  0  0  0  0  0  0  0  0
   -1.6047    4.2038  -11.3339 C   0  0  0  0  0  0  0  0  0  0  0  0
   -1.7525    2.8208  -11.8099 C   0  0  0  0  0  0  0  0  0  0  0  0
   -0.5123    2.0180  -12.0228 C   0  0  0  0  0  0  0  0  0  0  0  0
    0.0928    1.8968  -10.7377 F   0  0  0  0  0  0  0  0  0  0  0  0
    0.4500    2.7707  -12.7075 F   0  0  0  0  0  0  0  0  0  0  0  0
   -0.7362    0.4348  -12.7162 S   0  0  0  0  0  0  0  0  0  0  0  0
    0.5653   -0.3275  -12.5930 O   0  0  0  0  0  0  0  0  0  0  0  0
   -1.7259   -0.3275  -11.8418 O   0  0  0  0  0  0  0  0  0  0  0  0
   -1.3338    0.3859  -14.2522 O   0  0  0  0  0  0  0  0  0  0  0  0
   -2.4458    2.9149  -13.0437 F   0  0  0  0  0  0  0  0  0  0  0  0
   -2.6720    2.0968  -11.0168 F   0  0  0  0  0  0  0  0  0  0  0  0
   -1.0120    4.2204  -10.0815 F   0  0  0  0  0  0  0  0  0  0  0  0
   -0.6782    4.8642  -12.1923 F   0  0  0  0  0  0  0  0  0  0  0  0
   -2.9528    5.4931  -12.7177 F   0  0  0  0  0  0  0  0  0  0  0  0
   -3.9752    4.5602  -10.9208 F   0  0  0  0  0  0  0  0  0  0  0  0
   -3.5409    7.2574  -10.2407 C   0  0  0  0  0  0  0  0  0  0  0  0
   -3.1748    8.5840   -9.6448 C   0  0  0  0  0  0  0  0  0  0  0  0
   -4.4784    9.3209   -9.2740 C   0  0  0  0  0  0  0  0  0  0  0  0
   -5.1392    8.5836   -8.3056 F   0  0  0  0  0  0  0  0  0  0  0  0
   -5.2956    9.5098  -10.3452 F   0  0  0  0  0  0  0  0  0  0  0  0
   -4.1976   10.5473   -8.7049 F   0  0  0  0  0  0  0  0  0  0  0  0
   -2.5613    9.4025  -10.6063 F   0  0  0  0  0  0  0  0  0  0  0  0
   -2.3577    8.5363   -8.5609 F   0  0  0  0  0  0  0  0  0  0  0  0
   -4.4002    6.6001   -9.3647 F   0  0  0  0  0  0  0  0  0  0  0  0
   -4.3375    7.5639  -11.3671 F   0  0  0  0  0  0  0  0  0  0  0  0
   -1.7215    5.9880   -9.4559 F   0  0  0  0  0  0  0  0  0  0  0  0
   -1.5291    7.0172  -11.3902 F   0  0  0  0  0  0  0  0  0  0  0  0
  1  2  1  0
  2  3  1  0
  3  4  1  0
  4  5  1  0
  5  6  1  0
  5  7  1  0
  5  8  1  0
  8  9  2  0
  8 10  2  0
  8 11  1  0
  4 12  1  0
  4 13  1  0
  3 14  1  0
  3 15  1  0
  2 16  1  0
  2 17  1  0
  1 18  1  0
 18 19  1  0
 19 20  1  0
 20 21  1  0
 20 22  1  0
 20 23  1  0
 19 24  1  0
 19 25  1  0
 18 26  1  0
 18 27  1  0
  1 28  1  0
  1 29  1  0
M  END
$$$$
