
     RDKit          3D

 25 24  0  0  0  0  0  0  0  0999 V2000
   11.1351   13.0619    3.8964 C   0  0  0  0  0  0  0  0  0  0  0  0
   11.8462   12.0362    3.9370 O   0  0  0  0  0  0  0  0  0  0  0  0
    9.7660   13.1964    3.4178 C   0  0  0  0  0  0  0  0  0  0  0  0
    9.0381   12.0464    2.8696 C   0  0  0  0  0  0  0  0  0  0  0  0
    7.6268   12.1077    2.4594 C   0  0  0  0  0  0  0  0  0  0  0  0
    6.8680   10.9645    1.9671 C   0  0  0  0  0  0  0  0  0  0  0  0
    5.3791   11.1558    1.7395 C   0  0  0  0  0  0  0  0  0  0  0  0
    4.5456    9.9719    1.4844 C   0  0  0  0  0  0  0  0  0  0  0  0
    3.0617   10.3798    1.2520 C   0  0  0  0  0  0  0  0  0  0  0  0
    2.6153   10.9543    2.4260 F   0  0  0  0  0  0  0  0  0  0  0  0
    3.0242   11.2664    0.2098 F   0  0  0  0  0  0  0  0  0  0  0  0
    2.2906    9.2850    0.9883 F   0  0  0  0  0  0  0  0  0  0  0  0
    4.8922    9.1618    0.4576 F   0  0  0  0  0  0  0  0  0  0  0  0
    4.4191    9.1627    2.6371 F   0  0  0  0  0  0  0  0  0  0  0  0
    4.8099   11.8738    2.7953 F   0  0  0  0  0  0  0  0  0  0  0  0
    5.1997   12.0126    0.6417 F   0  0  0  0  0  0  0  0  0  0  0  0
    7.0792    9.8449    2.7500 F   0  0  0  0  0  0  0  0  0  0  0  0
    7.3060   10.5950    0.6665 F   0  0  0  0  0  0  0  0  0  0  0  0
    6.9411   12.5011    3.6685 F   0  0  0  0  0  0  0  0  0  0  0  0
    7.4064   13.2648    1.6703 F   0  0  0  0  0  0  0  0  0  0  0  0
    9.8585   11.5838    1.7958 F   0  0  0  0  0  0  0  0  0  0  0  0
    9.1908   10.9543    3.7758 F   0  0  0  0  0  0  0  0  0  0  0  0
    9.0116   13.6805    4.5291 F   0  0  0  0  0  0  0  0  0  0  0  0
    9.7227   14.3085    2.5572 F   0  0  0  0  0  0  0  0  0  0  0  0
   11.7605   14.2349    4.3840 O   0  0  0  0  0  0  0  0  0  0  0  0
  1  2  2  0
  1  3  1  0
  3  4  1  0
  4  5  1  0
  5  6  1  0
  6  7  1  0
  7  8  1  0
  8  9  1  0
  9 10  1  0
  9 11  1  0
  9 12  1  0
  8 13  1  0
  8 14  1  0
  7 15  1  0
  7 16  1  0
  6 17  1  0
  6 18  1  0
  5 19  1  0
  5 20  1  0
  4 21  1  0
  4 22  1  0
  3 23  1  0
  3 24  1  0
  1 25  1  0
M  END
$$$$
