
     RDKit          3D

 25 24  0  0  0  0  0  0  0  0999 V2000
   10.3704   13.3781    3.3930 C   0  0  0  0  0  0  0  0  0  0  0  0
   10.5915   12.9995    4.5623 O   0  0  0  0  0  0  0  0  0  0  0  0
    9.3036   12.9618    2.4928 C   0  0  0  0  0  0  0  0  0  0  0  0
    8.2681   12.0184    2.9294 C   0  0  0  0  0  0  0  0  0  0  0  0
    7.1393   11.6111    2.0786 C   0  0  0  0  0  0  0  0  0  0  0  0
    6.0091   10.8171    2.5446 C   0  0  0  0  0  0  0  0  0  0  0  0
    4.8756   10.5674    1.5658 C   0  0  0  0  0  0  0  0  0  0  0  0
    3.5600   10.1769    2.0930 C   0  0  0  0  0  0  0  0  0  0  0  0
    2.5441    9.9538    0.9353 C   0  0  0  0  0  0  0  0  0  0  0  0
    1.3819    9.4756    1.5083 F   0  0  0  0  0  0  0  0  0  0  0  0
    2.3422   11.1553    0.3113 F   0  0  0  0  0  0  0  0  0  0  0  0
    3.0059    9.0190    0.0547 F   0  0  0  0  0  0  0  0  0  0  0  0
    3.4940    9.0821    2.8854 F   0  0  0  0  0  0  0  0  0  0  0  0
    2.9382   11.2398    2.7883 F   0  0  0  0  0  0  0  0  0  0  0  0
    4.7014   11.6710    0.7255 F   0  0  0  0  0  0  0  0  0  0  0  0
    5.2655    9.5523    0.6775 F   0  0  0  0  0  0  0  0  0  0  0  0
    5.4996   11.3131    3.7302 F   0  0  0  0  0  0  0  0  0  0  0  0
    6.4191    9.4896    2.8443 F   0  0  0  0  0  0  0  0  0  0  0  0
    6.5532   12.8674    1.6720 F   0  0  0  0  0  0  0  0  0  0  0  0
    7.6226   11.1545    0.8265 F   0  0  0  0  0  0  0  0  0  0  0  0
    8.9952   10.8774    3.3875 F   0  0  0  0  0  0  0  0  0  0  0  0
    7.7430   12.4832    4.1726 F   0  0  0  0  0  0  0  0  0  0  0  0
    8.6390   14.1617    2.0967 F   0  0  0  0  0  0  0  0  0  0  0  0
    9.8984   12.5696    1.2797 F   0  0  0  0  0  0  0  0  0  0  0  0
   11.2873   14.3367    2.8982 O   0  0  0  0  0  0  0  0  0  0  0  0
  1  2  2  0
  1  3  1  0
  3  4  1  0
  4  5  1  0
  5  6  1  0
  6  7  1  0
  7  8  1  0
  8  9  1  0
  9 10  1  0
  9 11  1  0
  9 12  1  0
  8 13  1  0
  8 14  1  0
  7 15  1  0
  7 16  1  0
  6 17  1  0
  6 18  1  0
  5 19  1  0
  5 20  1  0
  4 21  1  0
  4 22  1  0
  3 23  1  0
  3 24  1  0
  1 25  1  0
M  END
$$$$
