
     RDKit          3D

 25 24  0  0  0  0  0  0  0  0999 V2000
   11.6558   16.7229    6.3228 C   0  0  0  0  0  0  0  0  0  0  0  0
   12.6854   16.7890    5.6193 O   0  0  0  0  0  0  0  0  0  0  0  0
   10.5116   15.8342    6.1723 C   0  0  0  0  0  0  0  0  0  0  0  0
   10.3547   14.9959    4.9784 C   0  0  0  0  0  0  0  0  0  0  0  0
    9.2540   14.0349    4.8081 C   0  0  0  0  0  0  0  0  0  0  0  0
    9.2541   12.9572    3.8264 C   0  0  0  0  0  0  0  0  0  0  0  0
    8.1503   11.9193    3.9236 C   0  0  0  0  0  0  0  0  0  0  0  0
    8.2593   10.6944    3.1179 C   0  0  0  0  0  0  0  0  0  0  0  0
    7.2308    9.6269    3.5920 C   0  0  0  0  0  0  0  0  0  0  0  0
    7.2421    9.6449    4.9730 F   0  0  0  0  0  0  0  0  0  0  0  0
    6.0033    9.9700    3.0926 F   0  0  0  0  0  0  0  0  0  0  0  0
    7.5952    8.3796    3.1749 F   0  0  0  0  0  0  0  0  0  0  0  0
    8.1175   10.8031    1.7766 F   0  0  0  0  0  0  0  0  0  0  0  0
    9.4754   10.0148    3.3605 F   0  0  0  0  0  0  0  0  0  0  0  0
    7.9397   11.5507    5.2556 F   0  0  0  0  0  0  0  0  0  0  0  0
    6.9340   12.5232    3.5668 F   0  0  0  0  0  0  0  0  0  0  0  0
   10.4829   12.3263    3.7711 F   0  0  0  0  0  0  0  0  0  0  0  0
    9.0423   13.4710    2.5183 F   0  0  0  0  0  0  0  0  0  0  0  0
    9.1956   13.3597    6.0839 F   0  0  0  0  0  0  0  0  0  0  0  0
    8.0119   14.7176    4.8400 F   0  0  0  0  0  0  0  0  0  0  0  0
   10.3966   15.9171    3.8876 F   0  0  0  0  0  0  0  0  0  0  0  0
   11.5849   14.3067    4.7577 F   0  0  0  0  0  0  0  0  0  0  0  0
   10.5493   14.9581    7.2991 F   0  0  0  0  0  0  0  0  0  0  0  0
    9.3523   16.5812    6.4499 F   0  0  0  0  0  0  0  0  0  0  0  0
   11.6164   17.6395    7.4012 O   0  0  0  0  0  0  0  0  0  0  0  0
  1  2  2  0
  1  3  1  0
  3  4  1  0
  4  5  1  0
  5  6  1  0
  6  7  1  0
  7  8  1  0
  8  9  1  0
  9 10  1  0
  9 11  1  0
  9 12  1  0
  8 13  1  0
  8 14  1  0
  7 15  1  0
  7 16  1  0
  6 17  1  0
  6 18  1  0
  5 19  1  0
  5 20  1  0
  4 21  1  0
  4 22  1  0
  3 23  1  0
  3 24  1  0
  1 25  1  0
M  END
$$$$
