
     RDKit          3D

 25 24  0  0  0  0  0  0  0  0999 V2000
    9.9379   13.6375    3.2112 C   0  0  0  0  0  0  0  0  0  0  0  0
   10.2626   13.1950    4.3329 O   0  0  0  0  0  0  0  0  0  0  0  0
    8.9309   13.1244    2.2922 C   0  0  0  0  0  0  0  0  0  0  0  0
    7.9289   12.1477    2.7337 C   0  0  0  0  0  0  0  0  0  0  0  0
    6.8333   11.6735    1.8743 C   0  0  0  0  0  0  0  0  0  0  0  0
    5.7508   10.8105    2.3311 C   0  0  0  0  0  0  0  0  0  0  0  0
    4.5961   10.5677    1.3757 C   0  0  0  0  0  0  0  0  0  0  0  0
    3.5420    9.6207    1.7677 C   0  0  0  0  0  0  0  0  0  0  0  0
    2.2491    9.8559    0.9338 C   0  0  0  0  0  0  0  0  0  0  0  0
    2.5289    9.4605   -0.3597 F   0  0  0  0  0  0  0  0  0  0  0  0
    1.2465    9.1049    1.4857 F   0  0  0  0  0  0  0  0  0  0  0  0
    1.9140   11.1788    0.9163 F   0  0  0  0  0  0  0  0  0  0  0  0
    3.8182    8.2982    1.6933 F   0  0  0  0  0  0  0  0  0  0  0  0
    3.0646    9.8800    3.0732 F   0  0  0  0  0  0  0  0  0  0  0  0
    3.9901   11.7767    1.0217 F   0  0  0  0  0  0  0  0  0  0  0  0
    5.1134   10.1042    0.1554 F   0  0  0  0  0  0  0  0  0  0  0  0
    5.2621   11.2215    3.5572 F   0  0  0  0  0  0  0  0  0  0  0  0
    6.2218    9.4867    2.5449 F   0  0  0  0  0  0  0  0  0  0  0  0
    6.1739   12.8921    1.4654 F   0  0  0  0  0  0  0  0  0  0  0  0
    7.3526   11.2499    0.6250 F   0  0  0  0  0  0  0  0  0  0  0  0
    8.6956   11.0496    3.2301 F   0  0  0  0  0  0  0  0  0  0  0  0
    7.3631   12.6176    3.9570 F   0  0  0  0  0  0  0  0  0  0  0  0
    8.2216   14.2680    1.8151 F   0  0  0  0  0  0  0  0  0  0  0  0
    9.5933   12.7102    1.1222 F   0  0  0  0  0  0  0  0  0  0  0  0
   10.6535   14.7875    2.7990 O   0  0  0  0  0  0  0  0  0  0  0  0
  1  2  2  0
  1  3  1  0
  3  4  1  0
  4  5  1  0
  5  6  1  0
  6  7  1  0
  7  8  1  0
  8  9  1  0
  9 10  1  0
  9 11  1  0
  9 12  1  0
  8 13  1  0
  8 14  1  0
  7 15  1  0
  7 16  1  0
  6 17  1  0
  6 18  1  0
  5 19  1  0
  5 20  1  0
  4 21  1  0
  4 22  1  0
  3 23  1  0
  3 24  1  0
  1 25  1  0
M  END
$$$$
