
     RDKit          3D

 25 24  0  0  0  0  0  0  0  0999 V2000
   -1.7594   -9.8859   -4.0057 C   0  0  0  0  0  0  0  0  0  0  0  0
   -2.4786  -10.7345   -3.4383 O   0  0  0  0  0  0  0  0  0  0  0  0
   -0.6263   -9.1498   -3.4617 C   0  0  0  0  0  0  0  0  0  0  0  0
   -0.0929   -9.4554   -2.1293 C   0  0  0  0  0  0  0  0  0  0  0  0
    1.0271   -8.7199   -1.5222 C   0  0  0  0  0  0  0  0  0  0  0  0
    1.4717   -8.8984   -0.1453 C   0  0  0  0  0  0  0  0  0  0  0  0
    2.7109   -8.1403    0.2958 C   0  0  0  0  0  0  0  0  0  0  0  0
    3.1765   -8.2930    1.6819 C   0  0  0  0  0  0  0  0  0  0  0  0
    4.6929   -7.9615    1.7959 C   0  0  0  0  0  0  0  0  0  0  0  0
    4.8228   -6.6022    1.5885 F   0  0  0  0  0  0  0  0  0  0  0  0
    5.1130   -8.3239    3.0473 F   0  0  0  0  0  0  0  0  0  0  0  0
    5.4082   -8.6138    0.8339 F   0  0  0  0  0  0  0  0  0  0  0  0
    2.5483   -7.5785    2.6441 F   0  0  0  0  0  0  0  0  0  0  0  0
    3.1712   -9.6470    2.0896 F   0  0  0  0  0  0  0  0  0  0  0  0
    3.7828   -8.4126   -0.5594 F   0  0  0  0  0  0  0  0  0  0  0  0
    2.4907   -6.7675    0.0992 F   0  0  0  0  0  0  0  0  0  0  0  0
    1.6079  -10.2373    0.1705 F   0  0  0  0  0  0  0  0  0  0  0  0
    0.4992   -8.4004    0.7636 F   0  0  0  0  0  0  0  0  0  0  0  0
    2.1633   -9.1161   -2.3215 F   0  0  0  0  0  0  0  0  0  0  0  0
    0.9494   -7.3494   -1.8767 F   0  0  0  0  0  0  0  0  0  0  0  0
   -1.2365   -9.4342   -1.2738 F   0  0  0  0  0  0  0  0  0  0  0  0
    0.2139  -10.8486   -2.0852 F   0  0  0  0  0  0  0  0  0  0  0  0
    0.4398   -9.3333   -4.3935 F   0  0  0  0  0  0  0  0  0  0  0  0
   -0.8923   -7.7778   -3.6227 F   0  0  0  0  0  0  0  0  0  0  0  0
   -2.1079   -9.6202   -5.3520 O   0  0  0  0  0  0  0  0  0  0  0  0
  1  2  2  0
  1  3  1  0
  3  4  1  0
  4  5  1  0
  5  6  1  0
  6  7  1  0
  7  8  1  0
  8  9  1  0
  9 10  1  0
  9 11  1  0
  9 12  1  0
  8 13  1  0
  8 14  1  0
  7 15  1  0
  7 16  1  0
  6 17  1  0
  6 18  1  0
  5 19  1  0
  5 20  1  0
  4 21  1  0
  4 22  1  0
  3 23  1  0
  3 24  1  0
  1 25  1  0
M  END
$$$$
