
     RDKit          3D

 25 24  0  0  0  0  0  0  0  0999 V2000
    7.1272  -15.7728    6.1344 C   0  0  0  0  0  0  0  0  0  0  0  0
    6.8983  -15.3690    7.3210 O   0  0  0  0  0  0  0  0  0  0  0  0
    6.5476  -15.0958    4.9441 C   0  0  0  0  0  0  0  0  0  0  0  0
    5.5130  -14.0460    5.3930 C   0  0  0  0  0  0  0  0  0  0  0  0
    4.8161  -13.4436    4.2380 C   0  0  0  0  0  0  0  0  0  0  0  0
    3.8026  -12.3786    4.4829 C   0  0  0  0  0  0  0  0  0  0  0  0
    3.2850  -11.6110    3.3371 C   0  0  0  0  0  0  0  0  0  0  0  0
    2.4933  -10.3882    3.6413 C   0  0  0  0  0  0  0  0  0  0  0  0
    1.5778   -9.8508    2.6135 C   0  0  0  0  0  0  0  0  0  0  0  0
    1.2536   -8.5394    3.0560 F   0  0  0  0  0  0  0  0  0  0  0  0
    0.3873  -10.5126    2.4894 F   0  0  0  0  0  0  0  0  0  0  0  0
    2.1477   -9.6126    1.3730 F   0  0  0  0  0  0  0  0  0  0  0  0
    1.7118  -10.7057    4.7666 F   0  0  0  0  0  0  0  0  0  0  0  0
    3.3372   -9.3278    4.0149 F   0  0  0  0  0  0  0  0  0  0  0  0
    2.3835  -12.4330    2.6099 F   0  0  0  0  0  0  0  0  0  0  0  0
    4.2702  -11.3123    2.4134 F   0  0  0  0  0  0  0  0  0  0  0  0
    2.7395  -12.9083    5.1972 F   0  0  0  0  0  0  0  0  0  0  0  0
    4.5000  -11.4491    5.2976 F   0  0  0  0  0  0  0  0  0  0  0  0
    4.3275  -14.4524    3.4099 F   0  0  0  0  0  0  0  0  0  0  0  0
    5.8075  -12.8145    3.4540 F   0  0  0  0  0  0  0  0  0  0  0  0
    6.1133  -13.1649    6.2576 F   0  0  0  0  0  0  0  0  0  0  0  0
    4.5751  -14.8087    6.1198 F   0  0  0  0  0  0  0  0  0  0  0  0
    5.9387  -16.0746    4.1862 F   0  0  0  0  0  0  0  0  0  0  0  0
    7.5162  -14.4917    4.1688 F   0  0  0  0  0  0  0  0  0  0  0  0
    7.9370  -16.8755    5.8938 O   0  0  0  0  0  0  0  0  0  0  0  0
  1  2  2  0
  1  3  1  0
  3  4  1  0
  4  5  1  0
  5  6  1  0
  6  7  1  0
  7  8  1  0
  8  9  1  0
  9 10  1  0
  9 11  1  0
  9 12  1  0
  8 13  1  0
  8 14  1  0
  7 15  1  0
  7 16  1  0
  6 17  1  0
  6 18  1  0
  5 19  1  0
  5 20  1  0
  4 21  1  0
  4 22  1  0
  3 23  1  0
  3 24  1  0
  1 25  1  0
M  END
$$$$
