
     RDKit          3D

 25 24  0  0  0  0  0  0  0  0999 V2000
  -10.3221   -8.9821  -19.9327 C   0  0  0  0  0  0  0  0  0  0  0  0
   -9.5735   -8.2343  -20.6425 O   0  0  0  0  0  0  0  0  0  0  0  0
  -10.1724   -9.0763  -18.4563 C   0  0  0  0  0  0  0  0  0  0  0  0
  -11.1951   -8.1520  -17.7679 C   0  0  0  0  0  0  0  0  0  0  0  0
  -10.9436   -8.0520  -16.3156 C   0  0  0  0  0  0  0  0  0  0  0  0
  -11.7618   -7.1054  -15.5058 C   0  0  0  0  0  0  0  0  0  0  0  0
  -11.4531   -6.9414  -14.0748 C   0  0  0  0  0  0  0  0  0  0  0  0
  -12.1863   -5.8750  -13.3400 C   0  0  0  0  0  0  0  0  0  0  0  0
  -11.7099   -5.4662  -12.0025 C   0  0  0  0  0  0  0  0  0  0  0  0
  -10.4393   -4.8702  -12.2285 F   0  0  0  0  0  0  0  0  0  0  0  0
  -11.4954   -6.4902  -11.1215 F   0  0  0  0  0  0  0  0  0  0  0  0
  -12.4189   -4.4356  -11.4062 F   0  0  0  0  0  0  0  0  0  0  0  0
  -12.1360   -4.7360  -14.1635 F   0  0  0  0  0  0  0  0  0  0  0  0
  -13.5427   -6.2136  -13.1922 F   0  0  0  0  0  0  0  0  0  0  0  0
  -10.0876   -6.5732  -13.9441 F   0  0  0  0  0  0  0  0  0  0  0  0
  -11.5371   -8.1325  -13.3767 F   0  0  0  0  0  0  0  0  0  0  0  0
  -11.7703   -5.8619  -16.1180 F   0  0  0  0  0  0  0  0  0  0  0  0
  -13.0631   -7.6684  -15.5665 F   0  0  0  0  0  0  0  0  0  0  0  0
   -9.5779   -7.8919  -16.0886 F   0  0  0  0  0  0  0  0  0  0  0  0
  -11.2294   -9.3224  -15.7699 F   0  0  0  0  0  0  0  0  0  0  0  0
  -12.4622   -8.5340  -18.1324 F   0  0  0  0  0  0  0  0  0  0  0  0
  -10.9301   -6.8925  -18.3449 F   0  0  0  0  0  0  0  0  0  0  0  0
   -8.8868   -8.6730  -18.1596 F   0  0  0  0  0  0  0  0  0  0  0  0
  -10.3337  -10.3688  -18.0006 F   0  0  0  0  0  0  0  0  0  0  0  0
  -11.3235   -9.7524  -20.5099 O   0  0  0  0  0  0  0  0  0  0  0  0
  1  2  2  0
  1  3  1  0
  3  4  1  0
  4  5  1  0
  5  6  1  0
  6  7  1  0
  7  8  1  0
  8  9  1  0
  9 10  1  0
  9 11  1  0
  9 12  1  0
  8 13  1  0
  8 14  1  0
  7 15  1  0
  7 16  1  0
  6 17  1  0
  6 18  1  0
  5 19  1  0
  5 20  1  0
  4 21  1  0
  4 22  1  0
  3 23  1  0
  3 24  1  0
  1 25  1  0
M  END
$$$$
