
     RDKit          3D

 25 24  0  0  0  0  0  0  0  0999 V2000
    7.0635  -16.0719    5.8584 C   0  0  0  0  0  0  0  0  0  0  0  0
    6.7690  -15.8794    7.0830 O   0  0  0  0  0  0  0  0  0  0  0  0
    6.5595  -15.1857    4.7760 C   0  0  0  0  0  0  0  0  0  0  0  0
    5.5177  -14.2047    5.3473 C   0  0  0  0  0  0  0  0  0  0  0  0
    4.7799  -13.5108    4.2718 C   0  0  0  0  0  0  0  0  0  0  0  0
    3.8241  -12.4269    4.6366 C   0  0  0  0  0  0  0  0  0  0  0  0
    3.4249  -11.4528    3.6062 C   0  0  0  0  0  0  0  0  0  0  0  0
    2.1592  -10.7039    3.8340 C   0  0  0  0  0  0  0  0  0  0  0  0
    1.6543   -9.8068    2.7741 C   0  0  0  0  0  0  0  0  0  0  0  0
    2.5755   -8.7250    2.7351 F   0  0  0  0  0  0  0  0  0  0  0  0
    0.4285   -9.2505    3.0158 F   0  0  0  0  0  0  0  0  0  0  0  0
    1.7295  -10.3068    1.4838 F   0  0  0  0  0  0  0  0  0  0  0  0
    1.1703  -11.6786    4.0573 F   0  0  0  0  0  0  0  0  0  0  0  0
    2.2420   -9.9291    5.0041 F   0  0  0  0  0  0  0  0  0  0  0  0
    3.1997  -12.1473    2.3878 F   0  0  0  0  0  0  0  0  0  0  0  0
    4.4415  -10.5686    3.2934 F   0  0  0  0  0  0  0  0  0  0  0  0
    2.6892  -12.9838    5.2047 F   0  0  0  0  0  0  0  0  0  0  0  0
    4.5307  -11.6905    5.6227 F   0  0  0  0  0  0  0  0  0  0  0  0
    4.2060  -14.4510    3.4181 F   0  0  0  0  0  0  0  0  0  0  0  0
    5.7485  -12.8720    3.4675 F   0  0  0  0  0  0  0  0  0  0  0  0
    6.1240  -13.3967    6.2767 F   0  0  0  0  0  0  0  0  0  0  0  0
    4.6133  -15.0519    6.0211 F   0  0  0  0  0  0  0  0  0  0  0  0
    5.9782  -16.0039    3.8294 F   0  0  0  0  0  0  0  0  0  0  0  0
    7.5776  -14.4802    4.1678 F   0  0  0  0  0  0  0  0  0  0  0  0
    7.8774  -17.1292    5.4724 O   0  0  0  0  0  0  0  0  0  0  0  0
  1  2  2  0
  1  3  1  0
  3  4  1  0
  4  5  1  0
  5  6  1  0
  6  7  1  0
  7  8  1  0
  8  9  1  0
  9 10  1  0
  9 11  1  0
  9 12  1  0
  8 13  1  0
  8 14  1  0
  7 15  1  0
  7 16  1  0
  6 17  1  0
  6 18  1  0
  5 19  1  0
  5 20  1  0
  4 21  1  0
  4 22  1  0
  3 23  1  0
  3 24  1  0
  1 25  1  0
M  END
$$$$
