
     RDKit          3D

 25 24  0  0  0  0  0  0  0  0999 V2000
    7.0184  -16.7112    5.0400 C   0  0  0  0  0  0  0  0  0  0  0  0
    6.7176  -17.3780    6.0832 O   0  0  0  0  0  0  0  0  0  0  0  0
    6.9310  -15.2274    4.9984 C   0  0  0  0  0  0  0  0  0  0  0  0
    5.4538  -14.7904    5.0307 C   0  0  0  0  0  0  0  0  0  0  0  0
    5.3144  -13.3353    4.8170 C   0  0  0  0  0  0  0  0  0  0  0  0
    3.9554  -12.7257    4.8712 C   0  0  0  0  0  0  0  0  0  0  0  0
    3.7558  -11.3793    4.3077 C   0  0  0  0  0  0  0  0  0  0  0  0
    2.3601  -10.9811    3.9789 C   0  0  0  0  0  0  0  0  0  0  0  0
    2.1342   -9.8406    3.0671 C   0  0  0  0  0  0  0  0  0  0  0  0
    2.5359  -10.3061    1.7855 F   0  0  0  0  0  0  0  0  0  0  0  0
    2.8931   -8.7315    3.3211 F   0  0  0  0  0  0  0  0  0  0  0  0
    0.8076   -9.4996    2.8562 F   0  0  0  0  0  0  0  0  0  0  0  0
    1.7678  -12.1099    3.3847 F   0  0  0  0  0  0  0  0  0  0  0  0
    1.6316  -10.7047    5.1489 F   0  0  0  0  0  0  0  0  0  0  0  0
    4.4382  -11.3016    3.0645 F   0  0  0  0  0  0  0  0  0  0  0  0
    4.3558  -10.3936    5.0703 F   0  0  0  0  0  0  0  0  0  0  0  0
    3.0353  -13.5977    4.3108 F   0  0  0  0  0  0  0  0  0  0  0  0
    3.7072  -12.6112    6.2638 F   0  0  0  0  0  0  0  0  0  0  0  0
    6.0107  -12.9637    3.6684 F   0  0  0  0  0  0  0  0  0  0  0  0
    6.0261  -12.7058    5.8612 F   0  0  0  0  0  0  0  0  0  0  0  0
    4.8625  -15.2896    6.1646 F   0  0  0  0  0  0  0  0  0  0  0  0
    4.8983  -15.4510    3.9151 F   0  0  0  0  0  0  0  0  0  0  0  0
    7.5234  -14.8263    3.8188 F   0  0  0  0  0  0  0  0  0  0  0  0
    7.6127  -14.6388    6.0439 F   0  0  0  0  0  0  0  0  0  0  0  0
    7.4463  -17.3449    3.8803 O   0  0  0  0  0  0  0  0  0  0  0  0
  1  2  2  0
  1  3  1  0
  3  4  1  0
  4  5  1  0
  5  6  1  0
  6  7  1  0
  7  8  1  0
  8  9  1  0
  9 10  1  0
  9 11  1  0
  9 12  1  0
  8 13  1  0
  8 14  1  0
  7 15  1  0
  7 16  1  0
  6 17  1  0
  6 18  1  0
  5 19  1  0
  5 20  1  0
  4 21  1  0
  4 22  1  0
  3 23  1  0
  3 24  1  0
  1 25  1  0
M  END
$$$$
