
     RDKit          3D

 25 24  0  0  0  0  0  0  0  0999 V2000
    6.8825  -15.3694    4.0726 C   0  0  0  0  0  0  0  0  0  0  0  0
    7.1311  -14.3951    3.2900 O   0  0  0  0  0  0  0  0  0  0  0  0
    6.3752  -15.1625    5.4549 C   0  0  0  0  0  0  0  0  0  0  0  0
    5.9476  -13.6938    5.6396 C   0  0  0  0  0  0  0  0  0  0  0  0
    4.6128  -13.4409    5.0593 C   0  0  0  0  0  0  0  0  0  0  0  0
    4.1725  -12.0324    4.8508 C   0  0  0  0  0  0  0  0  0  0  0  0
    3.1323  -11.7527    3.8459 C   0  0  0  0  0  0  0  0  0  0  0  0
    2.9969  -10.3450    3.3826 C   0  0  0  0  0  0  0  0  0  0  0  0
    1.8193   -9.9642    2.5755 C   0  0  0  0  0  0  0  0  0  0  0  0
    2.0225   -8.5962    2.2471 F   0  0  0  0  0  0  0  0  0  0  0  0
    0.6201  -10.0212    3.2306 F   0  0  0  0  0  0  0  0  0  0  0  0
    1.7344  -10.5593    1.3269 F   0  0  0  0  0  0  0  0  0  0  0  0
    2.9729   -9.5572    4.5474 F   0  0  0  0  0  0  0  0  0  0  0  0
    4.1276   -9.9516    2.6456 F   0  0  0  0  0  0  0  0  0  0  0  0
    1.8638  -12.0533    4.4097 F   0  0  0  0  0  0  0  0  0  0  0  0
    3.2118  -12.5985    2.7543 F   0  0  0  0  0  0  0  0  0  0  0  0
    3.7956  -11.4816    6.0655 F   0  0  0  0  0  0  0  0  0  0  0  0
    5.3504  -11.3900    4.3883 F   0  0  0  0  0  0  0  0  0  0  0  0
    3.6579  -14.1938    5.7402 F   0  0  0  0  0  0  0  0  0  0  0  0
    4.6246  -14.0030    3.7643 F   0  0  0  0  0  0  0  0  0  0  0  0
    6.9574  -12.8736    5.2014 F   0  0  0  0  0  0  0  0  0  0  0  0
    5.8472  -13.5615    7.0403 F   0  0  0  0  0  0  0  0  0  0  0  0
    7.4128  -15.4704    6.3104 F   0  0  0  0  0  0  0  0  0  0  0  0
    5.3147  -15.9955    5.7477 F   0  0  0  0  0  0  0  0  0  0  0  0
    7.0756  -16.6840    3.6678 O   0  0  0  0  0  0  0  0  0  0  0  0
  1  2  2  0
  1  3  1  0
  3  4  1  0
  4  5  1  0
  5  6  1  0
  6  7  1  0
  7  8  1  0
  8  9  1  0
  9 10  1  0
  9 11  1  0
  9 12  1  0
  8 13  1  0
  8 14  1  0
  7 15  1  0
  7 16  1  0
  6 17  1  0
  6 18  1  0
  5 19  1  0
  5 20  1  0
  4 21  1  0
  4 22  1  0
  3 23  1  0
  3 24  1  0
  1 25  1  0
M  END
$$$$
