
     RDKit          3D

 25 24  0  0  0  0  0  0  0  0999 V2000
    7.4403  -16.7920    4.9354 C   0  0  0  0  0  0  0  0  0  0  0  0
    7.0368  -17.3650    3.8713 O   0  0  0  0  0  0  0  0  0  0  0  0
    6.7839  -15.5708    5.4725 C   0  0  0  0  0  0  0  0  0  0  0  0
    5.7711  -15.0282    4.4459 C   0  0  0  0  0  0  0  0  0  0  0  0
    5.1526  -13.7688    4.9085 C   0  0  0  0  0  0  0  0  0  0  0  0
    4.5896  -12.8286    3.8982 C   0  0  0  0  0  0  0  0  0  0  0  0
    3.5419  -11.8802    4.3139 C   0  0  0  0  0  0  0  0  0  0  0  0
    3.0385  -10.9308    3.2845 C   0  0  0  0  0  0  0  0  0  0  0  0
    1.7800  -10.1986    3.5365 C   0  0  0  0  0  0  0  0  0  0  0  0
    0.8025  -11.2071    3.7552 F   0  0  0  0  0  0  0  0  0  0  0  0
    1.3214   -9.4491    2.4884 F   0  0  0  0  0  0  0  0  0  0  0  0
    1.7349   -9.4803    4.7207 F   0  0  0  0  0  0  0  0  0  0  0  0
    4.0513   -9.9689    3.1201 F   0  0  0  0  0  0  0  0  0  0  0  0
    2.8814  -11.5759    2.0454 F   0  0  0  0  0  0  0  0  0  0  0  0
    4.0681  -11.0391    5.3303 F   0  0  0  0  0  0  0  0  0  0  0  0
    2.4757  -12.5087    4.9315 F   0  0  0  0  0  0  0  0  0  0  0  0
    5.6220  -12.1326    3.2892 F   0  0  0  0  0  0  0  0  0  0  0  0
    3.9840  -13.6952    2.9515 F   0  0  0  0  0  0  0  0  0  0  0  0
    6.0100  -13.1281    5.8009 F   0  0  0  0  0  0  0  0  0  0  0  0
    4.0466  -14.1338    5.7066 F   0  0  0  0  0  0  0  0  0  0  0  0
    4.9012  -16.0319    4.0996 F   0  0  0  0  0  0  0  0  0  0  0  0
    6.5753  -14.7339    3.3251 F   0  0  0  0  0  0  0  0  0  0  0  0
    7.7833  -14.6459    5.6941 F   0  0  0  0  0  0  0  0  0  0  0  0
    6.1460  -15.8105    6.6725 F   0  0  0  0  0  0  0  0  0  0  0  0
    8.5233  -17.2859    5.6514 O   0  0  0  0  0  0  0  0  0  0  0  0
  1  2  2  0
  1  3  1  0
  3  4  1  0
  4  5  1  0
  5  6  1  0
  6  7  1  0
  7  8  1  0
  8  9  1  0
  9 10  1  0
  9 11  1  0
  9 12  1  0
  8 13  1  0
  8 14  1  0
  7 15  1  0
  7 16  1  0
  6 17  1  0
  6 18  1  0
  5 19  1  0
  5 20  1  0
  4 21  1  0
  4 22  1  0
  3 23  1  0
  3 24  1  0
  1 25  1  0
M  END
$$$$
