
     RDKit          3D

 29 28  0  0  0  0  0  0  0  0999 V2000
  -11.8716   -4.3322    1.1156 C   0  0  0  0  0  0  0  0  0  0  0  0
  -13.0710   -3.8802    0.3381 C   0  0  0  0  0  0  0  0  0  0  0  0
  -14.3828   -4.4899    0.5982 C   0  0  0  0  0  0  0  0  0  0  0  0
  -15.5397   -3.7619    0.0720 C   0  0  0  0  0  0  0  0  0  0  0  0
  -16.8892   -4.1217    0.6640 C   0  0  0  0  0  0  0  0  0  0  0  0
  -17.1656   -5.4296    0.2997 F   0  0  0  0  0  0  0  0  0  0  0  0
  -16.8000   -4.1440    2.0551 F   0  0  0  0  0  0  0  0  0  0  0  0
  -18.2269   -3.0996    0.2418 S   0  0  0  0  0  0  0  0  0  0  0  0
  -18.1832   -2.7040   -1.2357 O   0  0  0  0  0  0  0  0  0  0  0  0
  -19.5650   -3.5721    0.6666 O   0  0  0  0  0  0  0  0  0  0  0  0
  -17.9633   -1.6049    1.0439 O   0  0  0  0  0  0  0  0  0  0  0  0
  -15.6198   -3.9048   -1.2913 F   0  0  0  0  0  0  0  0  0  0  0  0
  -15.3959   -2.3860    0.3247 F   0  0  0  0  0  0  0  0  0  0  0  0
  -14.3524   -5.7820    0.0792 F   0  0  0  0  0  0  0  0  0  0  0  0
  -14.4951   -4.5819    1.9941 F   0  0  0  0  0  0  0  0  0  0  0  0
  -13.1171   -2.4772    0.5484 F   0  0  0  0  0  0  0  0  0  0  0  0
  -12.7336   -3.9617   -1.0384 F   0  0  0  0  0  0  0  0  0  0  0  0
  -10.8238   -3.2456    0.9009 C   0  0  0  0  0  0  0  0  0  0  0  0
   -9.7716   -3.1443    1.9242 C   0  0  0  0  0  0  0  0  0  0  0  0
   -8.7808   -2.0404    1.8196 C   0  0  0  0  0  0  0  0  0  0  0  0
   -8.1794   -1.9103    3.0936 F   0  0  0  0  0  0  0  0  0  0  0  0
   -9.3558   -0.7789    1.6301 F   0  0  0  0  0  0  0  0  0  0  0  0
   -7.7608   -2.3011    0.9453 F   0  0  0  0  0  0  0  0  0  0  0  0
   -9.0217   -4.3334    1.8373 F   0  0  0  0  0  0  0  0  0  0  0  0
  -10.3005   -3.1969    3.2202 F   0  0  0  0  0  0  0  0  0  0  0  0
  -11.4467   -2.0206    0.7382 F   0  0  0  0  0  0  0  0  0  0  0  0
  -10.2240   -3.5205   -0.3139 F   0  0  0  0  0  0  0  0  0  0  0  0
  -11.3711   -5.5110    0.7007 F   0  0  0  0  0  0  0  0  0  0  0  0
  -12.2530   -4.3189    2.4556 F   0  0  0  0  0  0  0  0  0  0  0  0
  1  2  1  0
  2  3  1  0
  3  4  1  0
  4  5  1  0
  5  6  1  0
  5  7  1  0
  5  8  1  0
  8  9  2  0
  8 10  2  0
  8 11  1  0
  4 12  1  0
  4 13  1  0
  3 14  1  0
  3 15  1  0
  2 16  1  0
  2 17  1  0
  1 18  1  0
 18 19  1  0
 19 20  1  0
 20 21  1  0
 20 22  1  0
 20 23  1  0
 19 24  1  0
 19 25  1  0
 18 26  1  0
 18 27  1  0
  1 28  1  0
  1 29  1  0
M  END
$$$$
