
     RDKit          3D

 29 28  0  0  0  0  0  0  0  0999 V2000
   -4.1843    5.4076   -4.9358 C   0  0  0  0  0  0  0  0  0  0  0  0
   -5.2827    5.1767   -5.9296 C   0  0  0  0  0  0  0  0  0  0  0  0
   -6.6860    5.2784   -5.5047 C   0  0  0  0  0  0  0  0  0  0  0  0
   -7.6509    5.5913   -6.5613 C   0  0  0  0  0  0  0  0  0  0  0  0
   -9.0715    5.8788   -6.1138 C   0  0  0  0  0  0  0  0  0  0  0  0
   -9.5023    4.7872   -5.3772 F   0  0  0  0  0  0  0  0  0  0  0  0
   -9.0735    6.9454   -5.2160 F   0  0  0  0  0  0  0  0  0  0  0  0
  -10.2264    6.2400   -7.3581 S   0  0  0  0  0  0  0  0  0  0  0  0
   -9.7098    7.3291   -8.3006 O   0  0  0  0  0  0  0  0  0  0  0  0
  -10.7854    5.0758   -8.0834 O   0  0  0  0  0  0  0  0  0  0  0  0
  -11.5499    7.0073   -6.5791 O   0  0  0  0  0  0  0  0  0  0  0  0
   -7.6922    4.5816   -7.4908 F   0  0  0  0  0  0  0  0  0  0  0  0
   -7.2519    6.7529   -7.2463 F   0  0  0  0  0  0  0  0  0  0  0  0
   -7.0232    4.0761   -4.8878 F   0  0  0  0  0  0  0  0  0  0  0  0
   -6.7226    6.2926   -4.5353 F   0  0  0  0  0  0  0  0  0  0  0  0
   -5.0061    6.0933   -6.9775 F   0  0  0  0  0  0  0  0  0  0  0  0
   -5.0273    3.9279   -6.5544 F   0  0  0  0  0  0  0  0  0  0  0  0
   -2.9065    4.9718   -5.6443 C   0  0  0  0  0  0  0  0  0  0  0  0
   -1.6761    4.9907   -4.8380 C   0  0  0  0  0  0  0  0  0  0  0  0
   -0.5843    4.0419   -5.1832 C   0  0  0  0  0  0  0  0  0  0  0  0
   -1.1425    2.7428   -5.1335 F   0  0  0  0  0  0  0  0  0  0  0  0
    0.4287    3.9690   -4.2207 F   0  0  0  0  0  0  0  0  0  0  0  0
   -0.1046    4.1984   -6.4553 F   0  0  0  0  0  0  0  0  0  0  0  0
   -2.0610    4.6607   -3.5240 F   0  0  0  0  0  0  0  0  0  0  0  0
   -1.1636    6.2873   -4.7023 F   0  0  0  0  0  0  0  0  0  0  0  0
   -2.7311    5.7204   -6.7950 F   0  0  0  0  0  0  0  0  0  0  0  0
   -3.1247    3.6764   -6.0747 F   0  0  0  0  0  0  0  0  0  0  0  0
   -4.3217    4.6938   -3.8027 F   0  0  0  0  0  0  0  0  0  0  0  0
   -4.1296    6.7851   -4.7343 F   0  0  0  0  0  0  0  0  0  0  0  0
  1  2  1  0
  2  3  1  0
  3  4  1  0
  4  5  1  0
  5  6  1  0
  5  7  1  0
  5  8  1  0
  8  9  2  0
  8 10  2  0
  8 11  1  0
  4 12  1  0
  4 13  1  0
  3 14  1  0
  3 15  1  0
  2 16  1  0
  2 17  1  0
  1 18  1  0
 18 19  1  0
 19 20  1  0
 20 21  1  0
 20 22  1  0
 20 23  1  0
 19 24  1  0
 19 25  1  0
 18 26  1  0
 18 27  1  0
  1 28  1  0
  1 29  1  0
M  END
$$$$
