
     RDKit          3D

 29 28  0  0  0  0  0  0  0  0999 V2000
  -11.7012   -5.5913   -2.0094 C   0  0  0  0  0  0  0  0  0  0  0  0
  -12.0894   -4.5242   -1.0306 C   0  0  0  0  0  0  0  0  0  0  0  0
  -13.4955   -4.3776   -0.6288 C   0  0  0  0  0  0  0  0  0  0  0  0
  -13.7709   -3.3297    0.3568 C   0  0  0  0  0  0  0  0  0  0  0  0
  -15.2062   -3.2128    0.8336 C   0  0  0  0  0  0  0  0  0  0  0  0
  -16.0175   -3.2204   -0.2896 F   0  0  0  0  0  0  0  0  0  0  0  0
  -15.5593   -4.3595    1.5435 F   0  0  0  0  0  0  0  0  0  0  0  0
  -15.5920   -1.8428    1.8271 S   0  0  0  0  0  0  0  0  0  0  0  0
  -15.3050   -0.5273    1.1004 O   0  0  0  0  0  0  0  0  0  0  0  0
  -16.9270   -1.8608    2.4686 O   0  0  0  0  0  0  0  0  0  0  0  0
  -14.4417   -1.8325    3.1013 O   0  0  0  0  0  0  0  0  0  0  0  0
  -13.3786   -2.1037   -0.1209 F   0  0  0  0  0  0  0  0  0  0  0  0
  -13.0256   -3.5633    1.5261 F   0  0  0  0  0  0  0  0  0  0  0  0
  -14.2389   -4.1557   -1.7855 F   0  0  0  0  0  0  0  0  0  0  0  0
  -13.8756   -5.6192   -0.0962 F   0  0  0  0  0  0  0  0  0  0  0  0
  -11.2655   -4.7680    0.0993 F   0  0  0  0  0  0  0  0  0  0  0  0
  -11.5669   -3.2977   -1.5181 F   0  0  0  0  0  0  0  0  0  0  0  0
  -10.1769   -5.5710   -2.0387 C   0  0  0  0  0  0  0  0  0  0  0  0
   -9.5283   -6.5877   -2.8814 C   0  0  0  0  0  0  0  0  0  0  0  0
   -8.0595   -6.7838   -2.7568 C   0  0  0  0  0  0  0  0  0  0  0  0
   -7.8373   -7.4188   -1.5122 F   0  0  0  0  0  0  0  0  0  0  0  0
   -7.3383   -5.5929   -2.6179 F   0  0  0  0  0  0  0  0  0  0  0  0
   -7.5362   -7.6195   -3.7059 F   0  0  0  0  0  0  0  0  0  0  0  0
   -9.7436   -6.1896   -4.2152 F   0  0  0  0  0  0  0  0  0  0  0  0
  -10.1878   -7.8212   -2.8081 F   0  0  0  0  0  0  0  0  0  0  0  0
   -9.6833   -5.6400   -0.7476 F   0  0  0  0  0  0  0  0  0  0  0  0
   -9.8151   -4.3219   -2.5075 F   0  0  0  0  0  0  0  0  0  0  0  0
  -12.1658   -5.3775   -3.2547 F   0  0  0  0  0  0  0  0  0  0  0  0
  -12.1160   -6.7978   -1.4495 F   0  0  0  0  0  0  0  0  0  0  0  0
  1  2  1  0
  2  3  1  0
  3  4  1  0
  4  5  1  0
  5  6  1  0
  5  7  1  0
  5  8  1  0
  8  9  2  0
  8 10  2  0
  8 11  1  0
  4 12  1  0
  4 13  1  0
  3 14  1  0
  3 15  1  0
  2 16  1  0
  2 17  1  0
  1 18  1  0
 18 19  1  0
 19 20  1  0
 20 21  1  0
 20 22  1  0
 20 23  1  0
 19 24  1  0
 19 25  1  0
 18 26  1  0
 18 27  1  0
  1 28  1  0
  1 29  1  0
M  END
$$$$
