
     RDKit          3D

 29 28  0  0  0  0  0  0  0  0999 V2000
   -4.2066    5.5894   -5.8595 C   0  0  0  0  0  0  0  0  0  0  0  0
   -5.5939    5.0330   -5.9743 C   0  0  0  0  0  0  0  0  0  0  0  0
   -6.7430    5.9457   -6.0546 C   0  0  0  0  0  0  0  0  0  0  0  0
   -8.0628    5.3105   -6.0553 C   0  0  0  0  0  0  0  0  0  0  0  0
   -9.2598    6.2423   -6.0676 C   0  0  0  0  0  0  0  0  0  0  0  0
   -9.1527    7.0684   -4.9604 F   0  0  0  0  0  0  0  0  0  0  0  0
   -9.1777    7.0965   -7.1664 F   0  0  0  0  0  0  0  0  0  0  0  0
  -10.8289    5.5009   -6.0972 S   0  0  0  0  0  0  0  0  0  0  0  0
  -10.8493    4.2041   -5.2855 O   0  0  0  0  0  0  0  0  0  0  0  0
  -11.9727    6.3883   -5.7839 O   0  0  0  0  0  0  0  0  0  0  0  0
  -11.0701    4.9478   -7.7044 O   0  0  0  0  0  0  0  0  0  0  0  0
   -8.1912    4.4649   -4.9812 F   0  0  0  0  0  0  0  0  0  0  0  0
   -8.2146    4.5213   -7.2092 F   0  0  0  0  0  0  0  0  0  0  0  0
   -6.6412    6.8393   -4.9912 F   0  0  0  0  0  0  0  0  0  0  0  0
   -6.5803    6.6661   -7.2481 F   0  0  0  0  0  0  0  0  0  0  0  0
   -5.5403    4.1891   -7.1143 F   0  0  0  0  0  0  0  0  0  0  0  0
   -5.7585    4.0960   -4.9207 F   0  0  0  0  0  0  0  0  0  0  0  0
   -3.2969    4.3720   -5.7371 C   0  0  0  0  0  0  0  0  0  0  0  0
   -1.8651    4.6463   -5.5389 C   0  0  0  0  0  0  0  0  0  0  0  0
   -1.3618    4.8350   -4.1524 C   0  0  0  0  0  0  0  0  0  0  0  0
    0.0054    5.1827   -4.2588 F   0  0  0  0  0  0  0  0  0  0  0  0
   -1.3129    3.6552   -3.4017 F   0  0  0  0  0  0  0  0  0  0  0  0
   -1.9637    5.8687   -3.4874 F   0  0  0  0  0  0  0  0  0  0  0  0
   -1.6005    5.8592   -6.2043 F   0  0  0  0  0  0  0  0  0  0  0  0
   -1.0602    3.7267   -6.2235 F   0  0  0  0  0  0  0  0  0  0  0  0
   -3.4740    3.5437   -6.8316 F   0  0  0  0  0  0  0  0  0  0  0  0
   -3.7566    3.6526   -4.6498 F   0  0  0  0  0  0  0  0  0  0  0  0
   -4.0281    6.3790   -4.7839 F   0  0  0  0  0  0  0  0  0  0  0  0
   -3.9414    6.2183   -7.0741 F   0  0  0  0  0  0  0  0  0  0  0  0
  1  2  1  0
  2  3  1  0
  3  4  1  0
  4  5  1  0
  5  6  1  0
  5  7  1  0
  5  8  1  0
  8  9  2  0
  8 10  2  0
  8 11  1  0
  4 12  1  0
  4 13  1  0
  3 14  1  0
  3 15  1  0
  2 16  1  0
  2 17  1  0
  1 18  1  0
 18 19  1  0
 19 20  1  0
 20 21  1  0
 20 22  1  0
 20 23  1  0
 19 24  1  0
 19 25  1  0
 18 26  1  0
 18 27  1  0
  1 28  1  0
  1 29  1  0
M  END
$$$$
