
     RDKit          3D

 24 26  0  0  0  0  0  0  0  0999 V2000
    7.3023  -38.9080   24.4535 C   0  0  0  0  0  0  0  0  0  0  0  0
    6.2946  -40.0028   24.2138 C   0  0  0  0  0  0  0  0  0  0  0  0
    6.7343  -41.1714   24.3094 O   0  0  0  0  0  0  0  0  0  0  0  0
    4.9715  -39.6742   23.9089 N   0  0  0  0  0  0  0  0  0  0  0  0
    3.8368  -40.5538   23.9113 C   0  0  0  0  0  0  0  0  0  0  0  0
    3.5359  -41.2105   25.2104 C   0  0  0  0  0  0  0  0  0  0  0  0
    2.5690  -42.3679   25.0739 C   0  0  0  0  0  0  0  0  0  0  0  0
    1.9201  -42.3645   26.3709 N   0  0  0  0  0  0  0  0  0  0  0  0
    1.8622  -41.0032   26.7767 C   0  0  0  0  0  0  0  0  0  0  0  0
    1.0688  -40.5541   27.6380 O   0  0  0  0  0  0  0  0  0  0  0  0
    2.8227  -40.3399   26.0454 O   0  0  0  0  0  0  0  0  0  0  0  0
    1.4640  -43.5332   27.0334 C   0  0  0  0  0  0  0  0  0  0  0  0
    0.7717  -43.4783   28.2478 C   0  0  0  0  0  0  0  0  0  0  0  0
    0.3305  -44.6197   28.8867 C   0  0  0  0  0  0  0  0  0  0  0  0
    0.5544  -45.8699   28.3527 C   0  0  0  0  0  0  0  0  0  0  0  0
    1.2317  -45.9477   27.1619 C   0  0  0  0  0  0  0  0  0  0  0  0
    1.6713  -44.7994   26.5265 C   0  0  0  0  0  0  0  0  0  0  0  0
    0.0830  -47.0137   29.0442 N   0  0  0  0  0  0  0  0  0  0  0  0
   -0.4597  -46.8302   30.3767 C   0  0  0  0  0  0  0  0  0  0  0  0
   -1.5269  -47.8138   30.7318 C   0  0  0  0  0  0  0  0  0  0  0  0
   -1.3442  -49.0629   30.1709 O   0  0  0  0  0  0  0  0  0  0  0  0
   -1.1939  -49.0135   28.7891 C   0  0  0  0  0  0  0  0  0  0  0  0
    0.1389  -48.3471   28.4369 C   0  0  0  0  0  0  0  0  0  0  0  0
   -0.3326  -44.5127   30.0561 F   0  0  0  0  0  0  0  0  0  0  0  0
  1  2  1  0
  2  3  2  0
  2  4  1  0
  4  5  1  0
  5  6  1  0
  6  7  1  0
  7  8  1  0
  8  9  1  0
  9 10  2  0
  9 11  1  0
  8 12  1  0
 12 13  2  0
 13 14  1  0
 14 15  2  0
 15 16  1  0
 16 17  2  0
 15 18  1  0
 18 19  1  0
 19 20  1  0
 20 21  1  0
 21 22  1  0
 22 23  1  0
 14 24  1  0
 11  6  1  0
 17 12  1  0
 23 18  1  0
M  END
$$$$
