
     RDKit          3D

 24 26  0  0  0  0  0  0  0  0999 V2000
   28.9338  -32.9213   24.9024 C   0  0  0  0  0  0  0  0  0  0  0  0
   28.1310  -33.6235   23.8375 C   0  0  0  0  0  0  0  0  0  0  0  0
   27.4151  -34.5698   24.2374 O   0  0  0  0  0  0  0  0  0  0  0  0
   28.2208  -33.2015   22.5088 N   0  0  0  0  0  0  0  0  0  0  0  0
   27.8669  -33.9494   21.3355 C   0  0  0  0  0  0  0  0  0  0  0  0
   28.8694  -33.9350   20.2380 C   0  0  0  0  0  0  0  0  0  0  0  0
   28.6058  -34.9931   19.1873 C   0  0  0  0  0  0  0  0  0  0  0  0
   29.9437  -35.2590   18.6946 N   0  0  0  0  0  0  0  0  0  0  0  0
   30.8118  -35.0924   19.8081 C   0  0  0  0  0  0  0  0  0  0  0  0
   31.9647  -35.5799   19.8863 O   0  0  0  0  0  0  0  0  0  0  0  0
   30.1281  -34.3185   20.7197 O   0  0  0  0  0  0  0  0  0  0  0  0
   30.2401  -35.6095   17.3522 C   0  0  0  0  0  0  0  0  0  0  0  0
   31.5381  -35.9207   16.9333 C   0  0  0  0  0  0  0  0  0  0  0  0
   31.8193  -36.2612   15.6255 C   0  0  0  0  0  0  0  0  0  0  0  0
   30.8275  -36.3096   14.6703 C   0  0  0  0  0  0  0  0  0  0  0  0
   29.5466  -36.0080   15.0587 C   0  0  0  0  0  0  0  0  0  0  0  0
   29.2715  -35.6674   16.3717 C   0  0  0  0  0  0  0  0  0  0  0  0
   31.1632  -36.6643   13.3398 N   0  0  0  0  0  0  0  0  0  0  0  0
   31.2153  -35.6103   12.3447 C   0  0  0  0  0  0  0  0  0  0  0  0
   32.2038  -35.8625   11.2532 C   0  0  0  0  0  0  0  0  0  0  0  0
   32.3483  -37.1971   10.9279 O   0  0  0  0  0  0  0  0  0  0  0  0
   32.6563  -37.9875   12.0302 C   0  0  0  0  0  0  0  0  0  0  0  0
   31.4509  -38.0543   12.9721 C   0  0  0  0  0  0  0  0  0  0  0  0
   33.0877  -36.5527   15.2725 F   0  0  0  0  0  0  0  0  0  0  0  0
  1  2  1  0
  2  3  2  0
  2  4  1  0
  4  5  1  0
  5  6  1  0
  6  7  1  0
  7  8  1  0
  8  9  1  0
  9 10  2  0
  9 11  1  0
  8 12  1  0
 12 13  2  0
 13 14  1  0
 14 15  2  0
 15 16  1  0
 16 17  2  0
 15 18  1  0
 18 19  1  0
 19 20  1  0
 20 21  1  0
 21 22  1  0
 22 23  1  0
 14 24  1  0
 11  6  1  0
 17 12  1  0
 23 18  1  0
M  END
$$$$
