
     RDKit          3D

 24 26  0  0  0  0  0  0  0  0999 V2000
   36.1204  -26.6437    9.5777 C   0  0  0  0  0  0  0  0  0  0  0  0
   36.0356  -28.1205    9.8663 C   0  0  0  0  0  0  0  0  0  0  0  0
   36.9608  -28.5870   10.5694 O   0  0  0  0  0  0  0  0  0  0  0  0
   34.9714  -28.8678    9.3559 N   0  0  0  0  0  0  0  0  0  0  0  0
   35.0305  -30.1844    8.7866 C   0  0  0  0  0  0  0  0  0  0  0  0
   34.3398  -30.3513    7.4810 C   0  0  0  0  0  0  0  0  0  0  0  0
   34.7660  -31.6051    6.7466 C   0  0  0  0  0  0  0  0  0  0  0  0
   34.5689  -31.2176    5.3629 N   0  0  0  0  0  0  0  0  0  0  0  0
   34.8570  -29.8269    5.3004 C   0  0  0  0  0  0  0  0  0  0  0  0
   35.1572  -29.2125    4.2491 O   0  0  0  0  0  0  0  0  0  0  0  0
   34.7353  -29.3480    6.5862 O   0  0  0  0  0  0  0  0  0  0  0  0
   34.1669  -32.1122    4.3377 C   0  0  0  0  0  0  0  0  0  0  0  0
   33.4719  -31.6802    3.2031 C   0  0  0  0  0  0  0  0  0  0  0  0
   33.0841  -32.5562    2.2092 C   0  0  0  0  0  0  0  0  0  0  0  0
   33.3667  -33.9021    2.2923 C   0  0  0  0  0  0  0  0  0  0  0  0
   34.0477  -34.3483    3.3967 C   0  0  0  0  0  0  0  0  0  0  0  0
   34.4336  -33.4647    4.3896 C   0  0  0  0  0  0  0  0  0  0  0  0
   32.9487  -34.7639    1.2476 N   0  0  0  0  0  0  0  0  0  0  0  0
   31.7673  -34.3963    0.4908 C   0  0  0  0  0  0  0  0  0  0  0  0
   31.7933  -34.8627   -0.9284 C   0  0  0  0  0  0  0  0  0  0  0  0
   32.4440  -36.0678   -1.1084 O   0  0  0  0  0  0  0  0  0  0  0  0
   33.7361  -36.0617   -0.5938 C   0  0  0  0  0  0  0  0  0  0  0  0
   33.6841  -35.9934    0.9350 C   0  0  0  0  0  0  0  0  0  0  0  0
   32.4158  -32.0891    1.1350 F   0  0  0  0  0  0  0  0  0  0  0  0
  1  2  1  0
  2  3  2  0
  2  4  1  0
  4  5  1  0
  5  6  1  0
  6  7  1  0
  7  8  1  0
  8  9  1  0
  9 10  2  0
  9 11  1  0
  8 12  1  0
 12 13  2  0
 13 14  1  0
 14 15  2  0
 15 16  1  0
 16 17  2  0
 15 18  1  0
 18 19  1  0
 19 20  1  0
 20 21  1  0
 21 22  1  0
 22 23  1  0
 14 24  1  0
 11  6  1  0
 17 12  1  0
 23 18  1  0
M  END
$$$$
