
     RDKit          3D

 24 26  0  0  0  0  0  0  0  0999 V2000
   31.2367  -70.2543   35.0735 C   0  0  0  0  0  0  0  0  0  0  0  0
   31.0210  -68.9119   35.7239 C   0  0  0  0  0  0  0  0  0  0  0  0
   30.0499  -68.2516   35.2893 O   0  0  0  0  0  0  0  0  0  0  0  0
   31.8804  -68.4862   36.7395 N   0  0  0  0  0  0  0  0  0  0  0  0
   31.5306  -67.7423   37.9166 C   0  0  0  0  0  0  0  0  0  0  0  0
   32.6325  -67.5256   38.8905 C   0  0  0  0  0  0  0  0  0  0  0  0
   32.4550  -66.2629   39.7075 C   0  0  0  0  0  0  0  0  0  0  0  0
   33.8298  -65.9061   40.0010 N   0  0  0  0  0  0  0  0  0  0  0  0
   34.5908  -66.3164   38.8725 C   0  0  0  0  0  0  0  0  0  0  0  0
   35.7243  -65.8657   38.5810 O   0  0  0  0  0  0  0  0  0  0  0  0
   33.8347  -67.2647   38.2195 O   0  0  0  0  0  0  0  0  0  0  0  0
   34.2470  -65.2751   41.2012 C   0  0  0  0  0  0  0  0  0  0  0  0
   35.5490  -64.7938   41.3754 C   0  0  0  0  0  0  0  0  0  0  0  0
   35.9481  -64.1805   42.5459 C   0  0  0  0  0  0  0  0  0  0  0  0
   35.0759  -64.0147   43.5996 C   0  0  0  0  0  0  0  0  0  0  0  0
   33.7934  -64.4791   43.4508 C   0  0  0  0  0  0  0  0  0  0  0  0
   33.3997  -65.0932   42.2746 C   0  0  0  0  0  0  0  0  0  0  0  0
   35.5302  -63.3790   44.7821 N   0  0  0  0  0  0  0  0  0  0  0  0
   34.7592  -63.5649   45.9964 C   0  0  0  0  0  0  0  0  0  0  0  0
   35.5819  -63.5242   47.2430 C   0  0  0  0  0  0  0  0  0  0  0  0
   36.6592  -62.6624   47.1732 O   0  0  0  0  0  0  0  0  0  0  0  0
   37.4794  -62.9167   46.0790 C   0  0  0  0  0  0  0  0  0  0  0  0
   36.7436  -62.5557   44.7857 C   0  0  0  0  0  0  0  0  0  0  0  0
   37.2150  -63.7338   42.6638 F   0  0  0  0  0  0  0  0  0  0  0  0
  1  2  1  0
  2  3  2  0
  2  4  1  0
  4  5  1  0
  5  6  1  0
  6  7  1  0
  7  8  1  0
  8  9  1  0
  9 10  2  0
  9 11  1  0
  8 12  1  0
 12 13  2  0
 13 14  1  0
 14 15  2  0
 15 16  1  0
 16 17  2  0
 15 18  1  0
 18 19  1  0
 19 20  1  0
 20 21  1  0
 21 22  1  0
 22 23  1  0
 14 24  1  0
 11  6  1  0
 17 12  1  0
 23 18  1  0
M  END
$$$$
