
     RDKit          3D

 24 26  0  0  0  0  0  0  0  0999 V2000
    2.7005  -48.7945    5.9554 C   0  0  0  0  0  0  0  0  0  0  0  0
    1.2093  -48.9531    6.1062 C   0  0  0  0  0  0  0  0  0  0  0  0
    0.8233  -50.0772    6.5005 O   0  0  0  0  0  0  0  0  0  0  0  0
    0.3636  -47.8813    5.8105 N   0  0  0  0  0  0  0  0  0  0  0  0
   -0.9272  -47.6126    6.3789 C   0  0  0  0  0  0  0  0  0  0  0  0
   -0.9858  -47.6047    7.8642 C   0  0  0  0  0  0  0  0  0  0  0  0
   -2.3147  -47.1116    8.3973 C   0  0  0  0  0  0  0  0  0  0  0  0
   -1.9274  -46.5428    9.6740 N   0  0  0  0  0  0  0  0  0  0  0  0
   -0.6209  -46.0143    9.4875 C   0  0  0  0  0  0  0  0  0  0  0  0
   -0.1003  -45.1385   10.2189 O   0  0  0  0  0  0  0  0  0  0  0  0
   -0.0989  -46.6525    8.3840 O   0  0  0  0  0  0  0  0  0  0  0  0
   -2.7495  -46.5543   10.8301 C   0  0  0  0  0  0  0  0  0  0  0  0
   -4.0458  -47.0803   10.8166 C   0  0  0  0  0  0  0  0  0  0  0  0
   -4.8401  -47.0884   11.9456 C   0  0  0  0  0  0  0  0  0  0  0  0
   -4.3879  -46.5756   13.1417 C   0  0  0  0  0  0  0  0  0  0  0  0
   -3.1192  -46.0543   13.1782 C   0  0  0  0  0  0  0  0  0  0  0  0
   -2.3279  -46.0493   12.0427 C   0  0  0  0  0  0  0  0  0  0  0  0
   -5.2389  -46.6054   14.2747 N   0  0  0  0  0  0  0  0  0  0  0  0
   -6.6614  -46.7842   14.0555 C   0  0  0  0  0  0  0  0  0  0  0  0
   -7.3560  -47.4988   15.1687 C   0  0  0  0  0  0  0  0  0  0  0  0
   -6.8251  -47.2380   16.4170 O   0  0  0  0  0  0  0  0  0  0  0  0
   -5.4583  -47.4876   16.4812 C   0  0  0  0  0  0  0  0  0  0  0  0
   -4.7042  -46.4603   15.6323 C   0  0  0  0  0  0  0  0  0  0  0  0
   -6.0831  -47.6074   11.8800 F   0  0  0  0  0  0  0  0  0  0  0  0
  1  2  1  0
  2  3  2  0
  2  4  1  0
  4  5  1  0
  5  6  1  0
  6  7  1  0
  7  8  1  0
  8  9  1  0
  9 10  2  0
  9 11  1  0
  8 12  1  0
 12 13  2  0
 13 14  1  0
 14 15  2  0
 15 16  1  0
 16 17  2  0
 15 18  1  0
 18 19  1  0
 19 20  1  0
 20 21  1  0
 21 22  1  0
 22 23  1  0
 14 24  1  0
 11  6  1  0
 17 12  1  0
 23 18  1  0
M  END
$$$$
