
     RDKit          3D

 25 24  0  0  0  0  0  0  0  0999 V2000
  -14.0562   -3.6662   -9.7119 C   0  0  0  0  0  0  0  0  0  0  0  0
  -13.9569   -3.1713  -10.8595 O   0  0  0  0  0  0  0  0  0  0  0  0
  -14.5581   -2.8406   -8.5545 C   0  0  0  0  0  0  0  0  0  0  0  0
  -13.4330   -2.0765   -7.9486 C   0  0  0  0  0  0  0  0  0  0  0  0
  -13.7559   -1.2357   -6.7659 C   0  0  0  0  0  0  0  0  0  0  0  0
  -12.6503   -0.5364   -6.0851 C   0  0  0  0  0  0  0  0  0  0  0  0
  -12.9490    0.5394   -5.1178 C   0  0  0  0  0  0  0  0  0  0  0  0
  -11.8153    1.2118   -4.4357 C   0  0  0  0  0  0  0  0  0  0  0  0
  -12.4492    2.3174   -3.5628 C   0  0  0  0  0  0  0  0  0  0  0  0
  -11.9342    3.5257   -3.9891 F   0  0  0  0  0  0  0  0  0  0  0  0
  -13.8017    2.3317   -3.7180 F   0  0  0  0  0  0  0  0  0  0  0  0
  -12.0529    2.1361   -2.2409 F   0  0  0  0  0  0  0  0  0  0  0  0
  -11.0499    0.3710   -3.6642 F   0  0  0  0  0  0  0  0  0  0  0  0
  -10.9625    1.8906   -5.2697 F   0  0  0  0  0  0  0  0  0  0  0  0
  -13.7647    0.0234   -4.0829 F   0  0  0  0  0  0  0  0  0  0  0  0
  -13.7469    1.5686   -5.6442 F   0  0  0  0  0  0  0  0  0  0  0  0
  -11.8282    0.0406   -7.0859 F   0  0  0  0  0  0  0  0  0  0  0  0
  -11.7734   -1.4113   -5.4367 F   0  0  0  0  0  0  0  0  0  0  0  0
  -14.4340   -2.0268   -5.8429 F   0  0  0  0  0  0  0  0  0  0  0  0
  -14.7519   -0.3002   -7.1718 F   0  0  0  0  0  0  0  0  0  0  0  0
  -12.7701   -1.4271   -8.9565 F   0  0  0  0  0  0  0  0  0  0  0  0
  -12.5209   -3.0524   -7.4911 F   0  0  0  0  0  0  0  0  0  0  0  0
  -15.4142   -1.8731   -9.1152 F   0  0  0  0  0  0  0  0  0  0  0  0
  -15.3275   -3.5910   -7.7419 F   0  0  0  0  0  0  0  0  0  0  0  0
  -13.7238   -4.9805   -9.4074 O   0  0  0  0  0  0  0  0  0  0  0  0
  1  2  2  0
  1  3  1  0
  3  4  1  0
  4  5  1  0
  5  6  1  0
  6  7  1  0
  7  8  1  0
  8  9  1  0
  9 10  1  0
  9 11  1  0
  9 12  1  0
  8 13  1  0
  8 14  1  0
  7 15  1  0
  7 16  1  0
  6 17  1  0
  6 18  1  0
  5 19  1  0
  5 20  1  0
  4 21  1  0
  4 22  1  0
  3 23  1  0
  3 24  1  0
  1 25  1  0
M  END
$$$$
