
     RDKit          3D

 25 24  0  0  0  0  0  0  0  0999 V2000
   -5.3966   -1.5112   -8.2526 C   0  0  0  0  0  0  0  0  0  0  0  0
   -5.7049   -1.3533   -9.4575 O   0  0  0  0  0  0  0  0  0  0  0  0
   -4.8589   -0.3640   -7.4353 C   0  0  0  0  0  0  0  0  0  0  0  0
   -3.3702   -0.3775   -7.4565 C   0  0  0  0  0  0  0  0  0  0  0  0
   -2.6812    0.7423   -6.7627 C   0  0  0  0  0  0  0  0  0  0  0  0
   -1.2081    0.7908   -6.8104 C   0  0  0  0  0  0  0  0  0  0  0  0
   -0.4931    1.9376   -6.2140 C   0  0  0  0  0  0  0  0  0  0  0  0
    0.9798    1.8473   -6.0549 C   0  0  0  0  0  0  0  0  0  0  0  0
    1.4458    3.2676   -5.6653 C   0  0  0  0  0  0  0  0  0  0  0  0
    1.5906    3.2921   -4.2922 F   0  0  0  0  0  0  0  0  0  0  0  0
    2.6451    3.5522   -6.2434 F   0  0  0  0  0  0  0  0  0  0  0  0
    0.4489    4.1803   -5.9978 F   0  0  0  0  0  0  0  0  0  0  0  0
    1.3846    0.9338   -5.1118 F   0  0  0  0  0  0  0  0  0  0  0  0
    1.6678    1.5738   -7.2105 F   0  0  0  0  0  0  0  0  0  0  0  0
   -1.0024    2.1816   -4.9164 F   0  0  0  0  0  0  0  0  0  0  0  0
   -0.7360    3.1577   -6.8663 F   0  0  0  0  0  0  0  0  0  0  0  0
   -0.8224    0.7425   -8.1739 F   0  0  0  0  0  0  0  0  0  0  0  0
   -0.6108   -0.3581   -6.2833 F   0  0  0  0  0  0  0  0  0  0  0  0
   -3.0964    0.7509   -5.4341 F   0  0  0  0  0  0  0  0  0  0  0  0
   -3.2288    1.9558   -7.2723 F   0  0  0  0  0  0  0  0  0  0  0  0
   -2.9665   -0.5939   -8.7477 F   0  0  0  0  0  0  0  0  0  0  0  0
   -2.9964   -1.5495   -6.7636 F   0  0  0  0  0  0  0  0  0  0  0  0
   -5.2367    0.8067   -8.1210 F   0  0  0  0  0  0  0  0  0  0  0  0
   -5.4773   -0.3097   -6.2394 F   0  0  0  0  0  0  0  0  0  0  0  0
   -5.5172   -2.7196   -7.5775 O   0  0  0  0  0  0  0  0  0  0  0  0
  1  2  2  0
  1  3  1  0
  3  4  1  0
  4  5  1  0
  5  6  1  0
  6  7  1  0
  7  8  1  0
  8  9  1  0
  9 10  1  0
  9 11  1  0
  9 12  1  0
  8 13  1  0
  8 14  1  0
  7 15  1  0
  7 16  1  0
  6 17  1  0
  6 18  1  0
  5 19  1  0
  5 20  1  0
  4 21  1  0
  4 22  1  0
  3 23  1  0
  3 24  1  0
  1 25  1  0
M  END
$$$$
