
     RDKit          3D

 25 24  0  0  0  0  0  0  0  0999 V2000
  -14.3804   -3.2251  -10.2358 C   0  0  0  0  0  0  0  0  0  0  0  0
  -15.6064   -3.2059  -10.4971 O   0  0  0  0  0  0  0  0  0  0  0  0
  -13.8895   -3.0753   -8.8181 C   0  0  0  0  0  0  0  0  0  0  0  0
  -14.3963   -1.8022   -8.2357 C   0  0  0  0  0  0  0  0  0  0  0  0
  -13.8615   -1.4166   -6.9032 C   0  0  0  0  0  0  0  0  0  0  0  0
  -14.0187   -0.0165   -6.4677 C   0  0  0  0  0  0  0  0  0  0  0  0
  -13.5499    0.3909   -5.1274 C   0  0  0  0  0  0  0  0  0  0  0  0
  -13.2166    1.8190   -4.8988 C   0  0  0  0  0  0  0  0  0  0  0  0
  -13.0162    1.9623   -3.3738 C   0  0  0  0  0  0  0  0  0  0  0  0
  -14.2692    1.9983   -2.7946 F   0  0  0  0  0  0  0  0  0  0  0  0
  -12.3292    0.8956   -2.8800 F   0  0  0  0  0  0  0  0  0  0  0  0
  -12.3972    3.1806   -3.1092 F   0  0  0  0  0  0  0  0  0  0  0  0
  -12.0976    2.2459   -5.5721 F   0  0  0  0  0  0  0  0  0  0  0  0
  -14.2286    2.6997   -5.1882 F   0  0  0  0  0  0  0  0  0  0  0  0
  -12.3765   -0.3309   -4.8039 F   0  0  0  0  0  0  0  0  0  0  0  0
  -14.4220    0.0277   -4.0879 F   0  0  0  0  0  0  0  0  0  0  0  0
  -15.4008    0.2957   -6.5214 F   0  0  0  0  0  0  0  0  0  0  0  0
  -13.4641    0.8970   -7.3692 F   0  0  0  0  0  0  0  0  0  0  0  0
  -12.5133   -1.7603   -6.8606 F   0  0  0  0  0  0  0  0  0  0  0  0
  -14.4421   -2.2969   -5.9441 F   0  0  0  0  0  0  0  0  0  0  0  0
  -15.7630   -1.8067   -8.3313 F   0  0  0  0  0  0  0  0  0  0  0  0
  -13.9787   -0.7900   -9.1270 F   0  0  0  0  0  0  0  0  0  0  0  0
  -14.5141   -4.1024   -8.0845 F   0  0  0  0  0  0  0  0  0  0  0  0
  -12.5667   -3.3229   -8.7512 F   0  0  0  0  0  0  0  0  0  0  0  0
  -13.3892   -3.3812  -11.1969 O   0  0  0  0  0  0  0  0  0  0  0  0
  1  2  2  0
  1  3  1  0
  3  4  1  0
  4  5  1  0
  5  6  1  0
  6  7  1  0
  7  8  1  0
  8  9  1  0
  9 10  1  0
  9 11  1  0
  9 12  1  0
  8 13  1  0
  8 14  1  0
  7 15  1  0
  7 16  1  0
  6 17  1  0
  6 18  1  0
  5 19  1  0
  5 20  1  0
  4 21  1  0
  4 22  1  0
  3 23  1  0
  3 24  1  0
  1 25  1  0
M  END
$$$$
