
     RDKit          3D

 25 24  0  0  0  0  0  0  0  0999 V2000
   -5.4520   -1.1903   -8.2448 C   0  0  0  0  0  0  0  0  0  0  0  0
   -5.9930   -0.3993   -9.0532 O   0  0  0  0  0  0  0  0  0  0  0  0
   -4.5999   -0.6757   -7.1124 C   0  0  0  0  0  0  0  0  0  0  0  0
   -3.4733    0.1353   -7.6509 C   0  0  0  0  0  0  0  0  0  0  0  0
   -2.5240    0.7037   -6.6580 C   0  0  0  0  0  0  0  0  0  0  0  0
   -1.3493    1.4406   -7.1595 C   0  0  0  0  0  0  0  0  0  0  0  0
   -0.4385    2.1047   -6.2047 C   0  0  0  0  0  0  0  0  0  0  0  0
    0.8677    2.6029   -6.7032 C   0  0  0  0  0  0  0  0  0  0  0  0
    1.7231    2.8650   -5.4439 C   0  0  0  0  0  0  0  0  0  0  0  0
    1.1249    3.8956   -4.7460 F   0  0  0  0  0  0  0  0  0  0  0  0
    1.7615    1.7571   -4.6535 F   0  0  0  0  0  0  0  0  0  0  0  0
    2.9857    3.3012   -5.8347 F   0  0  0  0  0  0  0  0  0  0  0  0
    1.5119    1.7318   -7.5482 F   0  0  0  0  0  0  0  0  0  0  0  0
    0.8166    3.8211   -7.3334 F   0  0  0  0  0  0  0  0  0  0  0  0
   -0.1289    1.2084   -5.1543 F   0  0  0  0  0  0  0  0  0  0  0  0
   -1.0246    3.1810   -5.5182 F   0  0  0  0  0  0  0  0  0  0  0  0
   -1.8201    2.4520   -8.0346 F   0  0  0  0  0  0  0  0  0  0  0  0
   -0.5400    0.6657   -7.9958 F   0  0  0  0  0  0  0  0  0  0  0  0
   -2.0964   -0.3274   -5.8265 F   0  0  0  0  0  0  0  0  0  0  0  0
   -3.2801    1.5285   -5.7748 F   0  0  0  0  0  0  0  0  0  0  0  0
   -3.9895    1.0395   -8.5414 F   0  0  0  0  0  0  0  0  0  0  0  0
   -2.7162   -0.7549   -8.4432 F   0  0  0  0  0  0  0  0  0  0  0  0
   -5.4115    0.2290   -6.4010 F   0  0  0  0  0  0  0  0  0  0  0  0
   -4.3119   -1.6719   -6.2521 F   0  0  0  0  0  0  0  0  0  0  0  0
   -5.5822   -2.5719   -8.3134 O   0  0  0  0  0  0  0  0  0  0  0  0
  1  2  2  0
  1  3  1  0
  3  4  1  0
  4  5  1  0
  5  6  1  0
  6  7  1  0
  7  8  1  0
  8  9  1  0
  9 10  1  0
  9 11  1  0
  9 12  1  0
  8 13  1  0
  8 14  1  0
  7 15  1  0
  7 16  1  0
  6 17  1  0
  6 18  1  0
  5 19  1  0
  5 20  1  0
  4 21  1  0
  4 22  1  0
  3 23  1  0
  3 24  1  0
  1 25  1  0
M  END
$$$$
