
     RDKit          3D

 25 24  0  0  0  0  0  0  0  0999 V2000
   -5.7172   -0.7351   -8.3501 C   0  0  0  0  0  0  0  0  0  0  0  0
   -6.8424   -0.6297   -7.8071 O   0  0  0  0  0  0  0  0  0  0  0  0
   -4.4947   -1.0755   -7.5360 C   0  0  0  0  0  0  0  0  0  0  0  0
   -3.8824    0.1681   -6.9925 C   0  0  0  0  0  0  0  0  0  0  0  0
   -2.4034    0.2828   -7.0889 C   0  0  0  0  0  0  0  0  0  0  0  0
   -1.7679    1.5240   -6.6091 C   0  0  0  0  0  0  0  0  0  0  0  0
   -0.3047    1.5689   -6.4114 C   0  0  0  0  0  0  0  0  0  0  0  0
    0.3286    2.8774   -6.1120 C   0  0  0  0  0  0  0  0  0  0  0  0
    1.7252    2.5450   -5.5416 C   0  0  0  0  0  0  0  0  0  0  0  0
    1.9551    1.2026   -5.7697 F   0  0  0  0  0  0  0  0  0  0  0  0
    2.6854    3.2737   -6.1743 F   0  0  0  0  0  0  0  0  0  0  0  0
    1.7113    2.7393   -4.1634 F   0  0  0  0  0  0  0  0  0  0  0  0
    0.4404    3.7060   -7.2024 F   0  0  0  0  0  0  0  0  0  0  0  0
   -0.2793    3.5960   -5.1132 F   0  0  0  0  0  0  0  0  0  0  0  0
    0.3389    1.0919   -7.5780 F   0  0  0  0  0  0  0  0  0  0  0  0
    0.1613    0.6815   -5.4273 F   0  0  0  0  0  0  0  0  0  0  0  0
   -2.3519    1.8479   -5.3583 F   0  0  0  0  0  0  0  0  0  0  0  0
   -2.0897    2.6358   -7.3933 F   0  0  0  0  0  0  0  0  0  0  0  0
   -2.0364    0.0637   -8.4136 F   0  0  0  0  0  0  0  0  0  0  0  0
   -1.8474   -0.8445   -6.4167 F   0  0  0  0  0  0  0  0  0  0  0  0
   -4.3991    0.3835   -5.7420 F   0  0  0  0  0  0  0  0  0  0  0  0
   -4.4034    1.2174   -7.7805 F   0  0  0  0  0  0  0  0  0  0  0  0
   -4.9649   -1.7871   -6.4154 F   0  0  0  0  0  0  0  0  0  0  0  0
   -3.7033   -1.9303   -8.2133 F   0  0  0  0  0  0  0  0  0  0  0  0
   -5.4971   -0.5540   -9.7099 O   0  0  0  0  0  0  0  0  0  0  0  0
  1  2  2  0
  1  3  1  0
  3  4  1  0
  4  5  1  0
  5  6  1  0
  6  7  1  0
  7  8  1  0
  8  9  1  0
  9 10  1  0
  9 11  1  0
  9 12  1  0
  8 13  1  0
  8 14  1  0
  7 15  1  0
  7 16  1  0
  6 17  1  0
  6 18  1  0
  5 19  1  0
  5 20  1  0
  4 21  1  0
  4 22  1  0
  3 23  1  0
  3 24  1  0
  1 25  1  0
M  END
$$$$
