
     RDKit          3D

  5  4  0  0  0  0  0  0  0  0999 V2000
    1.6381   -6.4219   14.7232 C   0  0  0  0  0  0  0  0  0  0  0  0
    3.0385   -6.7540   14.4354 C   0  0  0  0  0  0  0  0  0  0  0  0
    3.7233   -5.8980   13.8036 O   0  0  0  0  0  0  0  0  0  0  0  0
    3.6749   -7.9210   14.7953 O   0  0  0  0  0  0  0  0  0  0  0  0
    1.2836   -5.2278   14.1324 F   0  0  0  0  0  0  0  0  0  0  0  0
  1  2  1  0
  2  3  2  0
  2  4  1  0
  1  5  1  0
M  END
$$$$
