
     RDKit          3D

  5  4  0  0  0  0  0  0  0  0999 V2000
    5.9301   -7.2589   15.7736 C   0  0  0  0  0  0  0  0  0  0  0  0
    7.1956   -7.3466   16.5117 C   0  0  0  0  0  0  0  0  0  0  0  0
    8.1538   -7.9586   15.9567 O   0  0  0  0  0  0  0  0  0  0  0  0
    7.4320   -6.8177   17.7611 O   0  0  0  0  0  0  0  0  0  0  0  0
    5.9888   -7.9906   14.6066 F   0  0  0  0  0  0  0  0  0  0  0  0
  1  2  1  0
  2  3  2  0
  2  4  1  0
  1  5  1  0
M  END
$$$$
