
     RDKit          3D

  5  4  0  0  0  0  0  0  0  0999 V2000
  -16.6676    7.8672   -6.3603 C   0  0  0  0  0  0  0  0  0  0  0  0
  -17.7776    8.5368   -7.0486 C   0  0  0  0  0  0  0  0  0  0  0  0
  -18.1315    9.6725   -6.6176 O   0  0  0  0  0  0  0  0  0  0  0  0
  -18.4700    8.0346   -8.1280 O   0  0  0  0  0  0  0  0  0  0  0  0
  -16.1459    8.6711   -5.3693 F   0  0  0  0  0  0  0  0  0  0  0  0
  1  2  1  0
  2  3  2  0
  2  4  1  0
  1  5  1  0
M  END
$$$$
