
     RDKit          3D

  5  4  0  0  0  0  0  0  0  0999 V2000
   13.4095   -2.0297   13.7043 C   0  0  0  0  0  0  0  0  0  0  0  0
   13.0312   -1.3239   14.9343 C   0  0  0  0  0  0  0  0  0  0  0  0
   13.4533   -1.7941   16.0304 O   0  0  0  0  0  0  0  0  0  0  0  0
   12.2538   -0.1890   14.9993 O   0  0  0  0  0  0  0  0  0  0  0  0
   13.8773   -3.2955   13.9867 F   0  0  0  0  0  0  0  0  0  0  0  0
  1  2  1  0
  2  3  2  0
  2  4  1  0
  1  5  1  0
M  END
$$$$
