
     RDKit          3D

 29 28  0  0  0  0  0  0  0  0999 V2000
   -0.7554   -8.5560  -23.9950 C   0  0  0  0  0  0  0  0  0  0  0  0
   -1.3056   -9.9270  -24.1947 C   0  0  0  0  0  0  0  0  0  0  0  0
   -2.0028  -10.5094  -23.0369 C   0  0  0  0  0  0  0  0  0  0  0  0
   -2.7211  -11.8214  -23.2418 C   0  0  0  0  0  0  0  0  0  0  0  0
   -3.1383  -12.5583  -22.0400 C   0  0  0  0  0  0  0  0  0  0  0  0
   -1.9981  -12.9093  -21.3174 F   0  0  0  0  0  0  0  0  0  0  0  0
   -4.0211  -11.9568  -21.1997 F   0  0  0  0  0  0  0  0  0  0  0  0
   -3.8865  -14.1404  -22.4617 S   0  0  0  0  0  0  0  0  0  0  0  0
   -4.3619  -14.8790  -21.2663 O   0  0  0  0  0  0  0  0  0  0  0  0
   -2.8734  -14.9979  -23.1671 O   0  0  0  0  0  0  0  0  0  0  0  0
   -5.1713  -13.9173  -23.5216 O   0  0  0  0  0  0  0  0  0  0  0  0
   -1.8116  -12.6142  -23.9712 F   0  0  0  0  0  0  0  0  0  0  0  0
   -3.7742  -11.6461  -24.1427 F   0  0  0  0  0  0  0  0  0  0  0  0
   -1.0086  -10.7223  -22.0506 F   0  0  0  0  0  0  0  0  0  0  0  0
   -2.8673   -9.5889  -22.4581 F   0  0  0  0  0  0  0  0  0  0  0  0
   -0.2150  -10.7393  -24.5289 F   0  0  0  0  0  0  0  0  0  0  0  0
   -2.1199   -9.8171  -25.3283 F   0  0  0  0  0  0  0  0  0  0  0  0
    0.1257   -7.9564  -25.0223 C   0  0  0  0  0  0  0  0  0  0  0  0
    0.5033   -6.5505  -24.4572 C   0  0  0  0  0  0  0  0  0  0  0  0
    1.1066   -5.7199  -25.5568 C   0  0  0  0  0  0  0  0  0  0  0  0
    0.1597   -5.4365  -26.5265 F   0  0  0  0  0  0  0  0  0  0  0  0
    2.2154   -6.3254  -26.1044 F   0  0  0  0  0  0  0  0  0  0  0  0
    1.4788   -4.5164  -24.9951 F   0  0  0  0  0  0  0  0  0  0  0  0
   -0.6390   -5.9271  -24.0302 F   0  0  0  0  0  0  0  0  0  0  0  0
    1.4319   -6.7404  -23.4590 F   0  0  0  0  0  0  0  0  0  0  0  0
   -0.4562   -7.7817  -26.2400 F   0  0  0  0  0  0  0  0  0  0  0  0
    1.3630   -8.6164  -25.1566 F   0  0  0  0  0  0  0  0  0  0  0  0
   -0.0963   -8.5316  -22.7639 F   0  0  0  0  0  0  0  0  0  0  0  0
   -1.8842   -7.7118  -23.9186 F   0  0  0  0  0  0  0  0  0  0  0  0
  1  2  1  0
  2  3  1  0
  3  4  1  0
  4  5  1  0
  5  6  1  0
  5  7  1  0
  5  8  1  0
  8  9  2  0
  8 10  2  0
  8 11  1  0
  4 12  1  0
  4 13  1  0
  3 14  1  0
  3 15  1  0
  2 16  1  0
  2 17  1  0
  1 18  1  0
 18 19  1  0
 19 20  1  0
 20 21  1  0
 20 22  1  0
 20 23  1  0
 19 24  1  0
 19 25  1  0
 18 26  1  0
 18 27  1  0
  1 28  1  0
  1 29  1  0
M  END
$$$$
