
     RDKit          3D

 29 28  0  0  0  0  0  0  0  0999 V2000
    9.9193   -8.7827  -14.2767 C   0  0  0  0  0  0  0  0  0  0  0  0
   10.4799   -9.1332  -12.9406 C   0  0  0  0  0  0  0  0  0  0  0  0
    9.5508   -9.0076  -11.8062 C   0  0  0  0  0  0  0  0  0  0  0  0
   10.0329   -9.4745  -10.4538 C   0  0  0  0  0  0  0  0  0  0  0  0
    9.2649   -9.0432   -9.2768 C   0  0  0  0  0  0  0  0  0  0  0  0
    9.3412   -7.6536   -9.1827 F   0  0  0  0  0  0  0  0  0  0  0  0
    7.9605   -9.4164   -9.1969 F   0  0  0  0  0  0  0  0  0  0  0  0
   10.0188   -9.6216   -7.7478 S   0  0  0  0  0  0  0  0  0  0  0  0
   10.2602  -11.0852   -7.7534 O   0  0  0  0  0  0  0  0  0  0  0  0
    9.1104   -9.3034   -6.5933 O   0  0  0  0  0  0  0  0  0  0  0  0
   11.4708   -8.8223   -7.4711 O   0  0  0  0  0  0  0  0  0  0  0  0
   11.3462   -8.9718  -10.3519 F   0  0  0  0  0  0  0  0  0  0  0  0
   10.2291  -10.8574  -10.4754 F   0  0  0  0  0  0  0  0  0  0  0  0
    9.2563   -7.6265  -11.6954 F   0  0  0  0  0  0  0  0  0  0  0  0
    8.3263   -9.5965  -12.0945 F   0  0  0  0  0  0  0  0  0  0  0  0
   11.5685   -8.2760  -12.7381 F   0  0  0  0  0  0  0  0  0  0  0  0
   10.9814  -10.4307  -13.0993 F   0  0  0  0  0  0  0  0  0  0  0  0
   10.6646   -9.1347  -15.5062 C   0  0  0  0  0  0  0  0  0  0  0  0
    9.9157   -8.3910  -16.6571 C   0  0  0  0  0  0  0  0  0  0  0  0
   10.5140   -8.7914  -17.9779 C   0  0  0  0  0  0  0  0  0  0  0  0
   11.8875   -8.6159  -17.9619 F   0  0  0  0  0  0  0  0  0  0  0  0
    9.9368   -8.1118  -19.0271 F   0  0  0  0  0  0  0  0  0  0  0  0
   10.2836  -10.1426  -18.1320 F   0  0  0  0  0  0  0  0  0  0  0  0
    8.6022   -8.7786  -16.6494 F   0  0  0  0  0  0  0  0  0  0  0  0
   10.0912   -7.0398  -16.4609 F   0  0  0  0  0  0  0  0  0  0  0  0
   10.6822  -10.4632  -15.8009 F   0  0  0  0  0  0  0  0  0  0  0  0
   11.9686   -8.6032  -15.5451 F   0  0  0  0  0  0  0  0  0  0  0  0
    9.6536   -7.4116  -14.2860 F   0  0  0  0  0  0  0  0  0  0  0  0
    8.6945   -9.4797  -14.3584 F   0  0  0  0  0  0  0  0  0  0  0  0
  1  2  1  0
  2  3  1  0
  3  4  1  0
  4  5  1  0
  5  6  1  0
  5  7  1  0
  5  8  1  0
  8  9  2  0
  8 10  2  0
  8 11  1  0
  4 12  1  0
  4 13  1  0
  3 14  1  0
  3 15  1  0
  2 16  1  0
  2 17  1  0
  1 18  1  0
 18 19  1  0
 19 20  1  0
 20 21  1  0
 20 22  1  0
 20 23  1  0
 19 24  1  0
 19 25  1  0
 18 26  1  0
 18 27  1  0
  1 28  1  0
  1 29  1  0
M  END
$$$$
