
     RDKit          3D

 29 28  0  0  0  0  0  0  0  0999 V2000
    8.0934   -6.6324  -11.4282 C   0  0  0  0  0  0  0  0  0  0  0  0
    7.2080   -6.0251  -10.3773 C   0  0  0  0  0  0  0  0  0  0  0  0
    7.9488   -5.7995   -9.0683 C   0  0  0  0  0  0  0  0  0  0  0  0
    7.0325   -5.3443   -7.9824 C   0  0  0  0  0  0  0  0  0  0  0  0
    7.6261   -5.0322   -6.6663 C   0  0  0  0  0  0  0  0  0  0  0  0
    8.4911   -6.0548   -6.2722 F   0  0  0  0  0  0  0  0  0  0  0  0
    8.4890   -3.9288   -6.8957 F   0  0  0  0  0  0  0  0  0  0  0  0
    6.5647   -4.5407   -5.3784 S   0  0  0  0  0  0  0  0  0  0  0  0
    5.7108   -5.6066   -4.7964 O   0  0  0  0  0  0  0  0  0  0  0  0
    5.7285   -3.3818   -5.7979 O   0  0  0  0  0  0  0  0  0  0  0  0
    7.5639   -3.9684   -4.1121 O   0  0  0  0  0  0  0  0  0  0  0  0
    6.3249   -4.1953   -8.3835 F   0  0  0  0  0  0  0  0  0  0  0  0
    6.0242   -6.3020   -7.7870 F   0  0  0  0  0  0  0  0  0  0  0  0
    8.9135   -4.8309   -9.2664 F   0  0  0  0  0  0  0  0  0  0  0  0
    8.6005   -6.9452   -8.6692 F   0  0  0  0  0  0  0  0  0  0  0  0
    6.7705   -4.8013  -10.8461 F   0  0  0  0  0  0  0  0  0  0  0  0
    6.1083   -6.8321  -10.1947 F   0  0  0  0  0  0  0  0  0  0  0  0
    7.3367   -6.9147  -12.7102 C   0  0  0  0  0  0  0  0  0  0  0  0
    8.1640   -7.8904  -13.5265 C   0  0  0  0  0  0  0  0  0  0  0  0
    7.3995   -8.4114  -14.7145 C   0  0  0  0  0  0  0  0  0  0  0  0
    7.1863   -7.3698  -15.6063 F   0  0  0  0  0  0  0  0  0  0  0  0
    8.1703   -9.3804  -15.3207 F   0  0  0  0  0  0  0  0  0  0  0  0
    6.2289   -8.9939  -14.3411 F   0  0  0  0  0  0  0  0  0  0  0  0
    9.3187   -7.2737  -13.9166 F   0  0  0  0  0  0  0  0  0  0  0  0
    8.4955   -8.9895  -12.7585 F   0  0  0  0  0  0  0  0  0  0  0  0
    6.1379   -7.5006  -12.3072 F   0  0  0  0  0  0  0  0  0  0  0  0
    7.0094   -5.8054  -13.4229 F   0  0  0  0  0  0  0  0  0  0  0  0
    8.6494   -7.8247  -11.0340 F   0  0  0  0  0  0  0  0  0  0  0  0
    9.1351   -5.7903  -11.7672 F   0  0  0  0  0  0  0  0  0  0  0  0
  1  2  1  0
  2  3  1  0
  3  4  1  0
  4  5  1  0
  5  6  1  0
  5  7  1  0
  5  8  1  0
  8  9  2  0
  8 10  2  0
  8 11  1  0
  4 12  1  0
  4 13  1  0
  3 14  1  0
  3 15  1  0
  2 16  1  0
  2 17  1  0
  1 18  1  0
 18 19  1  0
 19 20  1  0
 20 21  1  0
 20 22  1  0
 20 23  1  0
 19 24  1  0
 19 25  1  0
 18 26  1  0
 18 27  1  0
  1 28  1  0
  1 29  1  0
M  END
$$$$
