
     RDKit          3D

 29 28  0  0  0  0  0  0  0  0999 V2000
    7.7833   -6.2146   -8.7367 C   0  0  0  0  0  0  0  0  0  0  0  0
    7.9475   -5.9572  -10.2077 C   0  0  0  0  0  0  0  0  0  0  0  0
    8.2487   -7.2326  -10.9797 C   0  0  0  0  0  0  0  0  0  0  0  0
    8.0917   -7.0419  -12.4510 C   0  0  0  0  0  0  0  0  0  0  0  0
    8.4328   -8.1769  -13.3328 C   0  0  0  0  0  0  0  0  0  0  0  0
    9.7288   -8.6227  -13.0662 F   0  0  0  0  0  0  0  0  0  0  0  0
    7.6103   -9.2495  -12.8992 F   0  0  0  0  0  0  0  0  0  0  0  0
    8.1350   -8.0144  -15.0391 S   0  0  0  0  0  0  0  0  0  0  0  0
    8.4652   -9.1975  -15.8728 O   0  0  0  0  0  0  0  0  0  0  0  0
    8.8078   -6.7999  -15.5781 O   0  0  0  0  0  0  0  0  0  0  0  0
    6.4548   -7.7427  -15.2191 O   0  0  0  0  0  0  0  0  0  0  0  0
    6.7679   -6.6783  -12.7629 F   0  0  0  0  0  0  0  0  0  0  0  0
    8.8454   -5.9310  -12.8633 F   0  0  0  0  0  0  0  0  0  0  0  0
    7.3728   -8.2177  -10.5666 F   0  0  0  0  0  0  0  0  0  0  0  0
    9.5217   -7.6820  -10.7080 F   0  0  0  0  0  0  0  0  0  0  0  0
    6.7611   -5.4316  -10.6820 F   0  0  0  0  0  0  0  0  0  0  0  0
    8.9365   -5.0181  -10.3922 F   0  0  0  0  0  0  0  0  0  0  0  0
    7.1255   -5.0475   -8.0290 C   0  0  0  0  0  0  0  0  0  0  0  0
    7.1979   -5.3150   -6.5371 C   0  0  0  0  0  0  0  0  0  0  0  0
    6.6504   -4.1629   -5.7370 C   0  0  0  0  0  0  0  0  0  0  0  0
    5.9608   -4.6617   -4.6410 F   0  0  0  0  0  0  0  0  0  0  0  0
    7.7175   -3.4077   -5.2996 F   0  0  0  0  0  0  0  0  0  0  0  0
    5.8616   -3.3558   -6.4957 F   0  0  0  0  0  0  0  0  0  0  0  0
    6.5231   -6.4701   -6.2610 F   0  0  0  0  0  0  0  0  0  0  0  0
    8.5132   -5.4755   -6.1473 F   0  0  0  0  0  0  0  0  0  0  0  0
    7.8914   -3.9336   -8.3685 F   0  0  0  0  0  0  0  0  0  0  0  0
    5.8561   -4.7882   -8.4379 F   0  0  0  0  0  0  0  0  0  0  0  0
    8.9781   -6.4345   -8.0965 F   0  0  0  0  0  0  0  0  0  0  0  0
    6.9848   -7.3166   -8.4972 F   0  0  0  0  0  0  0  0  0  0  0  0
  1  2  1  0
  2  3  1  0
  3  4  1  0
  4  5  1  0
  5  6  1  0
  5  7  1  0
  5  8  1  0
  8  9  2  0
  8 10  2  0
  8 11  1  0
  4 12  1  0
  4 13  1  0
  3 14  1  0
  3 15  1  0
  2 16  1  0
  2 17  1  0
  1 18  1  0
 18 19  1  0
 19 20  1  0
 20 21  1  0
 20 22  1  0
 20 23  1  0
 19 24  1  0
 19 25  1  0
 18 26  1  0
 18 27  1  0
  1 28  1  0
  1 29  1  0
M  END
$$$$
