
     RDKit          3D

 29 28  0  0  0  0  0  0  0  0999 V2000
    6.8480   -5.4111   -9.6040 C   0  0  0  0  0  0  0  0  0  0  0  0
    6.6350   -6.6270  -10.4604 C   0  0  0  0  0  0  0  0  0  0  0  0
    6.8290   -6.3246  -11.9383 C   0  0  0  0  0  0  0  0  0  0  0  0
    6.7637   -7.5604  -12.7717 C   0  0  0  0  0  0  0  0  0  0  0  0
    6.9805   -7.4222  -14.2263 C   0  0  0  0  0  0  0  0  0  0  0  0
    6.1937   -6.3871  -14.7354 F   0  0  0  0  0  0  0  0  0  0  0  0
    8.3075   -6.9373  -14.3638 F   0  0  0  0  0  0  0  0  0  0  0  0
    6.8969   -8.8530  -15.2123 S   0  0  0  0  0  0  0  0  0  0  0  0
    7.4389  -10.0944  -14.6049 O   0  0  0  0  0  0  0  0  0  0  0  0
    7.5231   -8.6138  -16.5423 O   0  0  0  0  0  0  0  0  0  0  0  0
    5.2375   -9.1415  -15.5167 O   0  0  0  0  0  0  0  0  0  0  0  0
    7.6972   -8.5113  -12.3178 F   0  0  0  0  0  0  0  0  0  0  0  0
    5.5255   -8.1933  -12.5762 F   0  0  0  0  0  0  0  0  0  0  0  0
    8.0686   -5.7404  -12.1119 F   0  0  0  0  0  0  0  0  0  0  0  0
    5.8892   -5.4210  -12.3821 F   0  0  0  0  0  0  0  0  0  0  0  0
    7.5640   -7.5785  -10.0855 F   0  0  0  0  0  0  0  0  0  0  0  0
    5.3793   -7.1344  -10.2164 F   0  0  0  0  0  0  0  0  0  0  0  0
    6.7126   -5.7285   -8.1286 C   0  0  0  0  0  0  0  0  0  0  0  0
    6.7813   -4.4171   -7.3684 C   0  0  0  0  0  0  0  0  0  0  0  0
    6.6470   -4.6260   -5.8833 C   0  0  0  0  0  0  0  0  0  0  0  0
    6.1079   -3.4815   -5.3133 F   0  0  0  0  0  0  0  0  0  0  0  0
    5.7872   -5.6846   -5.6818 F   0  0  0  0  0  0  0  0  0  0  0  0
    7.8379   -4.9519   -5.3134 F   0  0  0  0  0  0  0  0  0  0  0  0
    7.9560   -3.7898   -7.6726 F   0  0  0  0  0  0  0  0  0  0  0  0
    5.7381   -3.5946   -7.7464 F   0  0  0  0  0  0  0  0  0  0  0  0
    5.4543   -6.3125   -7.9929 F   0  0  0  0  0  0  0  0  0  0  0  0
    7.6149   -6.6325   -7.6654 F   0  0  0  0  0  0  0  0  0  0  0  0
    5.9499   -4.4068   -9.8698 F   0  0  0  0  0  0  0  0  0  0  0  0
    8.1127   -4.8813   -9.7748 F   0  0  0  0  0  0  0  0  0  0  0  0
  1  2  1  0
  2  3  1  0
  3  4  1  0
  4  5  1  0
  5  6  1  0
  5  7  1  0
  5  8  1  0
  8  9  2  0
  8 10  2  0
  8 11  1  0
  4 12  1  0
  4 13  1  0
  3 14  1  0
  3 15  1  0
  2 16  1  0
  2 17  1  0
  1 18  1  0
 18 19  1  0
 19 20  1  0
 20 21  1  0
 20 22  1  0
 20 23  1  0
 19 24  1  0
 19 25  1  0
 18 26  1  0
 18 27  1  0
  1 28  1  0
  1 29  1  0
M  END
$$$$
