
     RDKit          3D

 29 28  0  0  0  0  0  0  0  0999 V2000
    3.2291   -2.9034  -12.4154 C   0  0  0  0  0  0  0  0  0  0  0  0
    4.1621   -3.9835  -11.9466 C   0  0  0  0  0  0  0  0  0  0  0  0
    4.6337   -4.8663  -13.0918 C   0  0  0  0  0  0  0  0  0  0  0  0
    5.6579   -5.8553  -12.6458 C   0  0  0  0  0  0  0  0  0  0  0  0
    6.1882   -6.7984  -13.6515 C   0  0  0  0  0  0  0  0  0  0  0  0
    5.1738   -7.6462  -14.1004 F   0  0  0  0  0  0  0  0  0  0  0  0
    6.4924   -6.0038  -14.7877 F   0  0  0  0  0  0  0  0  0  0  0  0
    7.6490   -7.6666  -13.2785 S   0  0  0  0  0  0  0  0  0  0  0  0
    8.8082   -6.8397  -12.8588 O   0  0  0  0  0  0  0  0  0  0  0  0
    8.0341   -8.5593  -14.4068 O   0  0  0  0  0  0  0  0  0  0  0  0
    7.2826   -8.6989  -11.9634 O   0  0  0  0  0  0  0  0  0  0  0  0
    6.7712   -5.1963  -12.0908 F   0  0  0  0  0  0  0  0  0  0  0  0
    5.1496   -6.6059  -11.5733 F   0  0  0  0  0  0  0  0  0  0  0  0
    5.1910   -4.0644  -14.0688 F   0  0  0  0  0  0  0  0  0  0  0  0
    3.5741   -5.5306  -13.6682 F   0  0  0  0  0  0  0  0  0  0  0  0
    5.2670   -3.3751  -11.3829 F   0  0  0  0  0  0  0  0  0  0  0  0
    3.5368   -4.7255  -10.9707 F   0  0  0  0  0  0  0  0  0  0  0  0
    2.8710   -1.9427  -11.2997 C   0  0  0  0  0  0  0  0  0  0  0  0
    2.4360   -0.6374  -11.9395 C   0  0  0  0  0  0  0  0  0  0  0  0
    2.1426    0.4188  -10.9071 C   0  0  0  0  0  0  0  0  0  0  0  0
    1.2528    1.3390  -11.4428 F   0  0  0  0  0  0  0  0  0  0  0  0
    1.5599   -0.2013   -9.8225 F   0  0  0  0  0  0  0  0  0  0  0  0
    3.2802    1.0228  -10.4707 F   0  0  0  0  0  0  0  0  0  0  0  0
    3.4083   -0.2226  -12.8047 F   0  0  0  0  0  0  0  0  0  0  0  0
    1.2688   -0.8250  -12.6538 F   0  0  0  0  0  0  0  0  0  0  0  0
    1.8070   -2.5415  -10.6274 F   0  0  0  0  0  0  0  0  0  0  0  0
    3.8567   -1.7562  -10.3836 F   0  0  0  0  0  0  0  0  0  0  0  0
    2.0425   -3.3961  -12.9003 F   0  0  0  0  0  0  0  0  0  0  0  0
    3.7939   -2.1414  -13.4202 F   0  0  0  0  0  0  0  0  0  0  0  0
  1  2  1  0
  2  3  1  0
  3  4  1  0
  4  5  1  0
  5  6  1  0
  5  7  1  0
  5  8  1  0
  8  9  2  0
  8 10  2  0
  8 11  1  0
  4 12  1  0
  4 13  1  0
  3 14  1  0
  3 15  1  0
  2 16  1  0
  2 17  1  0
  1 18  1  0
 18 19  1  0
 19 20  1  0
 20 21  1  0
 20 22  1  0
 20 23  1  0
 19 24  1  0
 19 25  1  0
 18 26  1  0
 18 27  1  0
  1 28  1  0
  1 29  1  0
M  END
$$$$
