
     RDKit          3D

  9  8  0  0  0  0  0  0  0  0999 V2000
   18.2480  -33.2311   28.3917 C   0  0  0  0  0  0  0  0  0  0  0  0
   17.8621  -33.6315   29.7236 N   0  0  0  0  0  0  0  0  0  0  0  0
   18.5562  -34.7870   30.2909 C   0  0  0  0  0  0  0  0  0  0  0  0
   16.8435  -32.9370   30.4724 C   0  0  0  0  0  0  0  0  0  0  0  0
   16.6146  -33.3624   31.6565 N   0  0  0  0  0  0  0  0  0  0  0  0
   16.1930  -31.8630   29.8493 N   0  0  0  0  0  0  0  0  0  0  0  0
   15.4316  -30.9937   30.3935 C   0  0  0  0  0  0  0  0  0  0  0  0
   14.8128  -29.9272   29.6572 N   0  0  0  0  0  0  0  0  0  0  0  0
   15.2101  -31.1237   31.8047 N   0  0  0  0  0  0  0  0  0  0  0  0
  1  2  1  0
  2  3  1  0
  2  4  1  0
  4  5  2  0
  4  6  1  0
  6  7  2  3
  7  8  1  0
  7  9  1  0
M  END
$$$$
