
     RDKit          3D

  9  8  0  0  0  0  0  0  0  0999 V2000
    2.5083  -48.6922   19.3893 C   0  0  0  0  0  0  0  0  0  0  0  0
    3.2898  -49.7685   19.9499 N   0  0  0  0  0  0  0  0  0  0  0  0
    2.5833  -50.7158   20.8114 C   0  0  0  0  0  0  0  0  0  0  0  0
    4.6996  -49.9171   19.6835 C   0  0  0  0  0  0  0  0  0  0  0  0
    5.2766  -50.9304   20.2085 N   0  0  0  0  0  0  0  0  0  0  0  0
    5.3178  -48.9496   18.8794 N   0  0  0  0  0  0  0  0  0  0  0  0
    6.5329  -48.9263   18.4864 C   0  0  0  0  0  0  0  0  0  0  0  0
    7.2168  -47.7133   18.1348 N   0  0  0  0  0  0  0  0  0  0  0  0
    7.2092  -50.1887   18.4064 N   0  0  0  0  0  0  0  0  0  0  0  0
  1  2  1  0
  2  3  1  0
  2  4  1  0
  4  5  2  0
  4  6  1  0
  6  7  2  3
  7  8  1  0
  7  9  1  0
M  END
$$$$
