
     RDKit          3D

  9  8  0  0  0  0  0  0  0  0999 V2000
   21.7665  -25.7388   21.2278 C   0  0  0  0  0  0  0  0  0  0  0  0
   21.7212  -24.5482   20.4130 N   0  0  0  0  0  0  0  0  0  0  0  0
   23.0050  -23.9473   20.0532 C   0  0  0  0  0  0  0  0  0  0  0  0
   20.4790  -23.9666   19.9669 C   0  0  0  0  0  0  0  0  0  0  0  0
   20.5669  -22.9088   19.2534 N   0  0  0  0  0  0  0  0  0  0  0  0
   19.2877  -24.6000   20.3466 N   0  0  0  0  0  0  0  0  0  0  0  0
   18.0937  -24.2433   20.0660 C   0  0  0  0  0  0  0  0  0  0  0  0
   17.7917  -23.1084   19.2394 N   0  0  0  0  0  0  0  0  0  0  0  0
   17.0361  -25.0379   20.6204 N   0  0  0  0  0  0  0  0  0  0  0  0
  1  2  1  0
  2  3  1  0
  2  4  1  0
  4  5  2  0
  4  6  1  0
  6  7  2  3
  7  8  1  0
  7  9  1  0
M  END
$$$$
