
     RDKit          3D

  9  8  0  0  0  0  0  0  0  0999 V2000
   17.0466  -62.5126   44.9854 C   0  0  0  0  0  0  0  0  0  0  0  0
   16.1565  -61.3920   44.7974 N   0  0  0  0  0  0  0  0  0  0  0  0
   15.1013  -61.5498   43.7972 C   0  0  0  0  0  0  0  0  0  0  0  0
   16.2875  -60.1690   45.5508 C   0  0  0  0  0  0  0  0  0  0  0  0
   17.2943  -60.0859   46.3350 N   0  0  0  0  0  0  0  0  0  0  0  0
   15.3116  -59.1800   45.3653 N   0  0  0  0  0  0  0  0  0  0  0  0
   15.2391  -58.0418   45.9404 C   0  0  0  0  0  0  0  0  0  0  0  0
   15.6177  -56.8155   45.2958 N   0  0  0  0  0  0  0  0  0  0  0  0
   14.7529  -58.0309   47.2899 N   0  0  0  0  0  0  0  0  0  0  0  0
  1  2  1  0
  2  3  1  0
  2  4  1  0
  4  5  2  0
  4  6  1  0
  6  7  2  3
  7  8  1  0
  7  9  1  0
M  END
$$$$
