
     RDKit          3D

  9  8  0  0  0  0  0  0  0  0999 V2000
    7.5262  -44.4674   29.2957 C   0  0  0  0  0  0  0  0  0  0  0  0
    7.5163  -43.2825   30.1199 N   0  0  0  0  0  0  0  0  0  0  0  0
    6.5092  -42.2699   29.8051 C   0  0  0  0  0  0  0  0  0  0  0  0
    8.4471  -43.0908   31.2049 C   0  0  0  0  0  0  0  0  0  0  0  0
    8.3535  -41.9907   31.8504 N   0  0  0  0  0  0  0  0  0  0  0  0
    9.3698  -44.1140   31.4623 N   0  0  0  0  0  0  0  0  0  0  0  0
   10.3256  -44.1040   32.3096 C   0  0  0  0  0  0  0  0  0  0  0  0
   11.6433  -44.5878   32.0062 N   0  0  0  0  0  0  0  0  0  0  0  0
   10.0285  -43.5782   33.6106 N   0  0  0  0  0  0  0  0  0  0  0  0
  1  2  1  0
  2  3  1  0
  2  4  1  0
  4  5  2  0
  4  6  1  0
  6  7  2  3
  7  8  1  0
  7  9  1  0
M  END
$$$$
