
     RDKit          3D

  9  8  0  0  0  0  0  0  0  0999 V2000
   11.2902  -59.7663    5.2978 C   0  0  0  0  0  0  0  0  0  0  0  0
   12.7107  -59.5284    5.2029 N   0  0  0  0  0  0  0  0  0  0  0  0
   13.4414  -60.2980    4.1967 C   0  0  0  0  0  0  0  0  0  0  0  0
   13.3918  -58.5815    6.0513 C   0  0  0  0  0  0  0  0  0  0  0  0
   14.6456  -58.4314    5.8487 N   0  0  0  0  0  0  0  0  0  0  0  0
   12.6337  -57.9088    7.0195 N   0  0  0  0  0  0  0  0  0  0  0  0
   12.9936  -56.9147    7.7362 C   0  0  0  0  0  0  0  0  0  0  0  0
   12.0590  -56.0705    8.4264 N   0  0  0  0  0  0  0  0  0  0  0  0
   14.4028  -56.6641    7.8303 N   0  0  0  0  0  0  0  0  0  0  0  0
  1  2  1  0
  2  3  1  0
  2  4  1  0
  4  5  2  0
  4  6  1  0
  6  7  2  3
  7  8  1  0
  7  9  1  0
M  END
$$$$
