
     RDKit          3D

 25 24  0  0  0  0  0  0  0  0999 V2000
   -8.7692   -8.5343   -7.5464 C   0  0  0  0  0  0  0  0  0  0  0  0
   -9.6227   -9.4649   -7.3488 O   0  0  0  0  0  0  0  0  0  0  0  0
   -8.1407   -7.8493   -6.3964 C   0  0  0  0  0  0  0  0  0  0  0  0
   -8.8748   -8.0328   -5.1156 C   0  0  0  0  0  0  0  0  0  0  0  0
   -8.4065   -7.1453   -4.0034 C   0  0  0  0  0  0  0  0  0  0  0  0
   -9.5974   -7.0241   -3.0144 C   0  0  0  0  0  0  0  0  0  0  0  0
   -9.3585   -5.8945   -2.0633 C   0  0  0  0  0  0  0  0  0  0  0  0
  -10.5597   -5.1786   -1.5970 C   0  0  0  0  0  0  0  0  0  0  0  0
  -10.4988   -4.3725   -0.3641 C   0  0  0  0  0  0  0  0  0  0  0  0
   -9.8714   -3.1555   -0.4624 F   0  0  0  0  0  0  0  0  0  0  0  0
  -11.7411   -4.1111    0.1951 F   0  0  0  0  0  0  0  0  0  0  0  0
   -9.8039   -5.0526    0.6518 F   0  0  0  0  0  0  0  0  0  0  0  0
  -11.6564   -6.0546   -1.4448 F   0  0  0  0  0  0  0  0  0  0  0  0
  -10.9991   -4.3173   -2.6250 F   0  0  0  0  0  0  0  0  0  0  0  0
   -8.4828   -4.9673   -2.6665 F   0  0  0  0  0  0  0  0  0  0  0  0
   -8.6016   -6.4194   -1.0236 F   0  0  0  0  0  0  0  0  0  0  0  0
  -10.7255   -6.9362   -3.7647 F   0  0  0  0  0  0  0  0  0  0  0  0
   -9.5565   -8.2265   -2.3275 F   0  0  0  0  0  0  0  0  0  0  0  0
   -7.2776   -7.5560   -3.3647 F   0  0  0  0  0  0  0  0  0  0  0  0
   -8.2148   -5.8501   -4.4422 F   0  0  0  0  0  0  0  0  0  0  0  0
   -8.8994   -9.3576   -4.7270 F   0  0  0  0  0  0  0  0  0  0  0  0
  -10.2055   -7.7011   -5.3530 F   0  0  0  0  0  0  0  0  0  0  0  0
   -6.8444   -8.2861   -6.2544 F   0  0  0  0  0  0  0  0  0  0  0  0
   -8.0884   -6.4997   -6.6810 F   0  0  0  0  0  0  0  0  0  0  0  0
   -8.4425   -8.1777   -8.8486 O   0  0  0  0  0  0  0  0  0  0  0  0
  1  2  2  0
  1  3  1  0
  3  4  1  0
  4  5  1  0
  5  6  1  0
  6  7  1  0
  7  8  1  0
  8  9  1  0
  9 10  1  0
  9 11  1  0
  9 12  1  0
  8 13  1  0
  8 14  1  0
  7 15  1  0
  7 16  1  0
  6 17  1  0
  6 18  1  0
  5 19  1  0
  5 20  1  0
  4 21  1  0
  4 22  1  0
  3 23  1  0
  3 24  1  0
  1 25  1  0
M  END
$$$$
