
     RDKit          3D

 25 24  0  0  0  0  0  0  0  0999 V2000
  -16.7977   -2.3621    0.2833 C   0  0  0  0  0  0  0  0  0  0  0  0
  -15.8478   -1.5255    0.1070 O   0  0  0  0  0  0  0  0  0  0  0  0
  -16.6114   -3.7825   -0.0834 C   0  0  0  0  0  0  0  0  0  0  0  0
  -15.2265   -4.1131   -0.5145 C   0  0  0  0  0  0  0  0  0  0  0  0
  -14.2054   -4.0382    0.5789 C   0  0  0  0  0  0  0  0  0  0  0  0
  -12.8191   -4.0532   -0.1203 C   0  0  0  0  0  0  0  0  0  0  0  0
  -11.7359   -3.8369    0.8885 C   0  0  0  0  0  0  0  0  0  0  0  0
  -10.3573   -4.0444    0.4095 C   0  0  0  0  0  0  0  0  0  0  0  0
   -9.2294   -3.9236    1.3513 C   0  0  0  0  0  0  0  0  0  0  0  0
   -7.9935   -4.2776    0.8701 F   0  0  0  0  0  0  0  0  0  0  0  0
   -9.0766   -2.6503    1.8802 F   0  0  0  0  0  0  0  0  0  0  0  0
   -9.4220   -4.7407    2.4794 F   0  0  0  0  0  0  0  0  0  0  0  0
  -10.0567   -3.1990   -0.6805 F   0  0  0  0  0  0  0  0  0  0  0  0
  -10.2690   -5.3288   -0.1686 F   0  0  0  0  0  0  0  0  0  0  0  0
  -11.9651   -4.6842    1.9931 F   0  0  0  0  0  0  0  0  0  0  0  0
  -11.9436   -2.5669    1.4112 F   0  0  0  0  0  0  0  0  0  0  0  0
  -12.7462   -5.2104   -0.8265 F   0  0  0  0  0  0  0  0  0  0  0  0
  -12.8865   -2.9619   -0.9709 F   0  0  0  0  0  0  0  0  0  0  0  0
  -14.3223   -2.9711    1.4148 F   0  0  0  0  0  0  0  0  0  0  0  0
  -14.1990   -5.1911    1.3389 F   0  0  0  0  0  0  0  0  0  0  0  0
  -14.8433   -3.3702   -1.6137 F   0  0  0  0  0  0  0  0  0  0  0  0
  -15.2371   -5.4328   -0.9564 F   0  0  0  0  0  0  0  0  0  0  0  0
  -16.9699   -4.5813    0.9771 F   0  0  0  0  0  0  0  0  0  0  0  0
  -17.4733   -4.0710   -1.1222 F   0  0  0  0  0  0  0  0  0  0  0  0
  -18.0002   -1.9209    0.8208 O   0  0  0  0  0  0  0  0  0  0  0  0
  1  2  2  0
  1  3  1  0
  3  4  1  0
  4  5  1  0
  5  6  1  0
  6  7  1  0
  7  8  1  0
  8  9  1  0
  9 10  1  0
  9 11  1  0
  9 12  1  0
  8 13  1  0
  8 14  1  0
  7 15  1  0
  7 16  1  0
  6 17  1  0
  6 18  1  0
  5 19  1  0
  5 20  1  0
  4 21  1  0
  4 22  1  0
  3 23  1  0
  3 24  1  0
  1 25  1  0
M  END
$$$$
