
     RDKit          3D

 25 24  0  0  0  0  0  0  0  0999 V2000
  -18.4085   -3.2845   -0.1625 C   0  0  0  0  0  0  0  0  0  0  0  0
  -18.6453   -4.0154    0.8588 O   0  0  0  0  0  0  0  0  0  0  0  0
  -17.0243   -3.1342   -0.6610 C   0  0  0  0  0  0  0  0  0  0  0  0
  -16.0128   -3.8624    0.1512 C   0  0  0  0  0  0  0  0  0  0  0  0
  -14.6068   -3.7257   -0.3471 C   0  0  0  0  0  0  0  0  0  0  0  0
  -13.6954   -4.3319    0.7542 C   0  0  0  0  0  0  0  0  0  0  0  0
  -12.3147   -3.7673    0.6425 C   0  0  0  0  0  0  0  0  0  0  0  0
  -11.3162   -4.3140    1.5790 C   0  0  0  0  0  0  0  0  0  0  0  0
   -9.9617   -3.7335    1.6257 C   0  0  0  0  0  0  0  0  0  0  0  0
   -9.0805   -4.3134    2.5039 F   0  0  0  0  0  0  0  0  0  0  0  0
   -9.3161   -3.7213    0.3979 F   0  0  0  0  0  0  0  0  0  0  0  0
  -10.0038   -2.3794    2.0023 F   0  0  0  0  0  0  0  0  0  0  0  0
  -11.1465   -5.7040    1.3994 F   0  0  0  0  0  0  0  0  0  0  0  0
  -11.8369   -4.2380    2.8886 F   0  0  0  0  0  0  0  0  0  0  0  0
  -12.3785   -2.3681    0.8126 F   0  0  0  0  0  0  0  0  0  0  0  0
  -11.9459   -3.9109   -0.6890 F   0  0  0  0  0  0  0  0  0  0  0  0
  -14.3225   -4.1286    1.9410 F   0  0  0  0  0  0  0  0  0  0  0  0
  -13.6735   -5.6797    0.4345 F   0  0  0  0  0  0  0  0  0  0  0  0
  -14.3586   -4.2943   -1.5578 F   0  0  0  0  0  0  0  0  0  0  0  0
  -14.2193   -2.4013   -0.3976 F   0  0  0  0  0  0  0  0  0  0  0  0
  -16.3584   -5.1877    0.3277 F   0  0  0  0  0  0  0  0  0  0  0  0
  -16.0356   -3.3099    1.4284 F   0  0  0  0  0  0  0  0  0  0  0  0
  -16.9591   -3.5550   -1.9686 F   0  0  0  0  0  0  0  0  0  0  0  0
  -16.7103   -1.7902   -0.6479 F   0  0  0  0  0  0  0  0  0  0  0  0
  -19.4631   -2.6372   -0.7937 O   0  0  0  0  0  0  0  0  0  0  0  0
  1  2  2  0
  1  3  1  0
  3  4  1  0
  4  5  1  0
  5  6  1  0
  6  7  1  0
  7  8  1  0
  8  9  1  0
  9 10  1  0
  9 11  1  0
  9 12  1  0
  8 13  1  0
  8 14  1  0
  7 15  1  0
  7 16  1  0
  6 17  1  0
  6 18  1  0
  5 19  1  0
  5 20  1  0
  4 21  1  0
  4 22  1  0
  3 23  1  0
  3 24  1  0
  1 25  1  0
M  END
$$$$
