
     RDKit          3D

 25 24  0  0  0  0  0  0  0  0999 V2000
  -17.6338   -3.3246   -0.0084 C   0  0  0  0  0  0  0  0  0  0  0  0
  -18.5623   -3.8745    0.6765 O   0  0  0  0  0  0  0  0  0  0  0  0
  -16.3478   -4.0261   -0.2103 C   0  0  0  0  0  0  0  0  0  0  0  0
  -15.2426   -3.5073    0.6396 C   0  0  0  0  0  0  0  0  0  0  0  0
  -13.9112   -4.1410    0.3751 C   0  0  0  0  0  0  0  0  0  0  0  0
  -12.9197   -3.5058    1.3871 C   0  0  0  0  0  0  0  0  0  0  0  0
  -11.5178   -3.8997    1.0446 C   0  0  0  0  0  0  0  0  0  0  0  0
  -10.4584   -3.3075    1.8812 C   0  0  0  0  0  0  0  0  0  0  0  0
   -9.1177   -3.9203    1.9068 C   0  0  0  0  0  0  0  0  0  0  0  0
   -8.5198   -4.1284    0.6888 F   0  0  0  0  0  0  0  0  0  0  0  0
   -8.1943   -3.2138    2.6633 F   0  0  0  0  0  0  0  0  0  0  0  0
   -9.1527   -5.1900    2.5101 F   0  0  0  0  0  0  0  0  0  0  0  0
  -10.8678   -3.1917    3.2274 F   0  0  0  0  0  0  0  0  0  0  0  0
  -10.2827   -1.9601    1.4999 F   0  0  0  0  0  0  0  0  0  0  0  0
  -11.2680   -3.5710   -0.3045 F   0  0  0  0  0  0  0  0  0  0  0  0
  -11.4967   -5.2886    1.0445 F   0  0  0  0  0  0  0  0  0  0  0  0
  -13.1716   -2.1717    1.4015 F   0  0  0  0  0  0  0  0  0  0  0  0
  -13.2852   -4.0878    2.5899 F   0  0  0  0  0  0  0  0  0  0  0  0
  -13.8860   -5.4992    0.4496 F   0  0  0  0  0  0  0  0  0  0  0  0
  -13.4101   -3.7605   -0.8541 F   0  0  0  0  0  0  0  0  0  0  0  0
  -15.5656   -3.5545    1.9814 F   0  0  0  0  0  0  0  0  0  0  0  0
  -15.1011   -2.1535    0.3494 F   0  0  0  0  0  0  0  0  0  0  0  0
  -16.5175   -5.3712    0.0199 F   0  0  0  0  0  0  0  0  0  0  0  0
  -15.9864   -3.8805   -1.5345 F   0  0  0  0  0  0  0  0  0  0  0  0
  -17.8486   -2.0665   -0.5568 O   0  0  0  0  0  0  0  0  0  0  0  0
  1  2  2  0
  1  3  1  0
  3  4  1  0
  4  5  1  0
  5  6  1  0
  6  7  1  0
  7  8  1  0
  8  9  1  0
  9 10  1  0
  9 11  1  0
  9 12  1  0
  8 13  1  0
  8 14  1  0
  7 15  1  0
  7 16  1  0
  6 17  1  0
  6 18  1  0
  5 19  1  0
  5 20  1  0
  4 21  1  0
  4 22  1  0
  3 23  1  0
  3 24  1  0
  1 25  1  0
M  END
$$$$
