
     RDKit          3D

 25 24  0  0  0  0  0  0  0  0999 V2000
  -10.4538    6.1346   -6.3181 C   0  0  0  0  0  0  0  0  0  0  0  0
  -10.8066    7.3198   -5.9951 O   0  0  0  0  0  0  0  0  0  0  0  0
   -9.1338    5.8986   -6.9414 C   0  0  0  0  0  0  0  0  0  0  0  0
   -8.0839    5.4723   -5.9775 C   0  0  0  0  0  0  0  0  0  0  0  0
   -6.7245    5.2988   -6.5826 C   0  0  0  0  0  0  0  0  0  0  0  0
   -5.7186    5.3105   -5.3999 C   0  0  0  0  0  0  0  0  0  0  0  0
   -4.3231    5.1516   -5.9147 C   0  0  0  0  0  0  0  0  0  0  0  0
   -3.2438    5.4722   -4.9633 C   0  0  0  0  0  0  0  0  0  0  0  0
   -1.8892    4.9338   -5.1846 C   0  0  0  0  0  0  0  0  0  0  0  0
   -0.9456    5.2515   -4.2396 F   0  0  0  0  0  0  0  0  0  0  0  0
   -1.8496    3.5525   -5.3062 F   0  0  0  0  0  0  0  0  0  0  0  0
   -1.3516    5.3985   -6.3980 F   0  0  0  0  0  0  0  0  0  0  0  0
   -3.5991    5.1226   -3.6424 F   0  0  0  0  0  0  0  0  0  0  0  0
   -3.1158    6.8754   -4.8824 F   0  0  0  0  0  0  0  0  0  0  0  0
   -4.1670    5.9530   -7.0654 F   0  0  0  0  0  0  0  0  0  0  0  0
   -4.2409    3.8575   -6.4129 F   0  0  0  0  0  0  0  0  0  0  0  0
   -5.9603    6.4409   -4.6879 F   0  0  0  0  0  0  0  0  0  0  0  0
   -6.0769    4.1864   -4.6739 F   0  0  0  0  0  0  0  0  0  0  0  0
   -6.5653    4.1879   -7.3517 F   0  0  0  0  0  0  0  0  0  0  0  0
   -6.3630    6.4033   -7.3284 F   0  0  0  0  0  0  0  0  0  0  0  0
   -8.4670    4.3507   -5.2689 F   0  0  0  0  0  0  0  0  0  0  0  0
   -7.9671    6.4796   -5.0242 F   0  0  0  0  0  0  0  0  0  0  0  0
   -9.2578    4.9587   -7.9375 F   0  0  0  0  0  0  0  0  0  0  0  0
   -8.7278    7.0753   -7.5380 F   0  0  0  0  0  0  0  0  0  0  0  0
  -11.3226    5.0779   -6.0768 O   0  0  0  0  0  0  0  0  0  0  0  0
  1  2  2  0
  1  3  1  0
  3  4  1  0
  4  5  1  0
  5  6  1  0
  6  7  1  0
  7  8  1  0
  8  9  1  0
  9 10  1  0
  9 11  1  0
  9 12  1  0
  8 13  1  0
  8 14  1  0
  7 15  1  0
  7 16  1  0
  6 17  1  0
  6 18  1  0
  5 19  1  0
  5 20  1  0
  4 21  1  0
  4 22  1  0
  3 23  1  0
  3 24  1  0
  1 25  1  0
M  END
$$$$
