
     RDKit          3D

 25 24  0  0  0  0  0  0  0  0999 V2000
  -16.7908   -3.4864    1.1768 C   0  0  0  0  0  0  0  0  0  0  0  0
  -16.8816   -3.5049    2.4515 O   0  0  0  0  0  0  0  0  0  0  0  0
  -16.0421   -4.5492    0.4721 C   0  0  0  0  0  0  0  0  0  0  0  0
  -14.6651   -4.1498    0.0755 C   0  0  0  0  0  0  0  0  0  0  0  0
  -13.7570   -3.8400    1.2259 C   0  0  0  0  0  0  0  0  0  0  0  0
  -12.3428   -3.6342    0.6190 C   0  0  0  0  0  0  0  0  0  0  0  0
  -11.3490   -3.3912    1.7104 C   0  0  0  0  0  0  0  0  0  0  0  0
  -10.1091   -2.7007    1.3121 C   0  0  0  0  0  0  0  0  0  0  0  0
   -9.0102   -2.5513    2.2836 C   0  0  0  0  0  0  0  0  0  0  0  0
   -9.3700   -2.2018    3.5613 F   0  0  0  0  0  0  0  0  0  0  0  0
   -8.2196   -3.6840    2.4121 F   0  0  0  0  0  0  0  0  0  0  0  0
   -8.1090   -1.5506    1.8789 F   0  0  0  0  0  0  0  0  0  0  0  0
  -10.3759   -1.4074    0.8126 F   0  0  0  0  0  0  0  0  0  0  0  0
   -9.5695   -3.3566    0.1851 F   0  0  0  0  0  0  0  0  0  0  0  0
  -11.0108   -4.6261    2.3031 F   0  0  0  0  0  0  0  0  0  0  0  0
  -12.0382   -2.7305    2.7194 F   0  0  0  0  0  0  0  0  0  0  0  0
  -12.0956   -4.7059   -0.1770 F   0  0  0  0  0  0  0  0  0  0  0  0
  -12.4921   -2.4837   -0.1380 F   0  0  0  0  0  0  0  0  0  0  0  0
  -14.1238   -2.7749    1.9888 F   0  0  0  0  0  0  0  0  0  0  0  0
  -13.6009   -4.9364    2.0508 F   0  0  0  0  0  0  0  0  0  0  0  0
  -14.6778   -3.1226   -0.8474 F   0  0  0  0  0  0  0  0  0  0  0  0
  -14.1001   -5.2307   -0.5948 F   0  0  0  0  0  0  0  0  0  0  0  0
  -15.9893   -5.6741    1.2614 F   0  0  0  0  0  0  0  0  0  0  0  0
  -16.7461   -4.8823   -0.6676 F   0  0  0  0  0  0  0  0  0  0  0  0
  -17.4014   -2.4601    0.4672 O   0  0  0  0  0  0  0  0  0  0  0  0
  1  2  2  0
  1  3  1  0
  3  4  1  0
  4  5  1  0
  5  6  1  0
  6  7  1  0
  7  8  1  0
  8  9  1  0
  9 10  1  0
  9 11  1  0
  9 12  1  0
  8 13  1  0
  8 14  1  0
  7 15  1  0
  7 16  1  0
  6 17  1  0
  6 18  1  0
  5 19  1  0
  5 20  1  0
  4 21  1  0
  4 22  1  0
  3 23  1  0
  3 24  1  0
  1 25  1  0
M  END
$$$$
