
     RDKit          3D

 24 27  0  0  0  0  0  0  0  0999 V2000
    3.5138  -32.4270  -12.0636 C   0  0  0  0  0  0  0  0  0  0  0  0
    2.6364  -31.3156  -11.5628 C   0  0  0  0  0  0  0  0  0  0  0  0
    2.0227  -32.5866  -12.1046 C   0  0  0  0  0  0  0  0  0  0  0  0
    1.3069  -32.5474  -13.3546 N   0  0  0  0  0  0  0  0  0  0  0  0
    0.7252  -31.3988  -13.7664 C   0  0  0  0  0  0  0  0  0  0  0  0
    0.0274  -31.3007  -14.9525 C   0  0  0  0  0  0  0  0  0  0  0  0
   -0.0701  -32.4382  -15.7407 C   0  0  0  0  0  0  0  0  0  0  0  0
   -0.7076  -32.3353  -16.8172 O   0  0  0  0  0  0  0  0  0  0  0  0
    0.5277  -33.5994  -15.3071 C   0  0  0  0  0  0  0  0  0  0  0  0
    0.4263  -34.7274  -16.0971 C   0  0  0  0  0  0  0  0  0  0  0  0
    0.9922  -35.9407  -15.7480 C   0  0  0  0  0  0  0  0  0  0  0  0
    1.6830  -35.9940  -14.5501 C   0  0  0  0  0  0  0  0  0  0  0  0
    1.7874  -34.8630  -13.7532 C   0  0  0  0  0  0  0  0  0  0  0  0
    1.2185  -33.6569  -14.1113 C   0  0  0  0  0  0  0  0  0  0  0  0
    2.3103  -37.1929  -14.0845 N   0  0  0  0  0  0  0  0  0  0  0  0
    1.9650  -38.4455  -14.7507 C   0  0  0  0  0  0  0  0  0  0  0  0
    2.4816  -39.5548  -13.8543 C   0  0  0  0  0  0  0  0  0  0  0  0
    3.9169  -39.3713  -13.8098 N   0  0  0  0  0  0  0  0  0  0  0  0
    4.2563  -38.2416  -13.0106 C   0  0  0  0  0  0  0  0  0  0  0  0
    3.2492  -37.1304  -12.9895 C   0  0  0  0  0  0  0  0  0  0  0  0
    0.8897  -37.0402  -16.5247 F   0  0  0  0  0  0  0  0  0  0  0  0
   -0.5759  -30.0317  -15.3376 C   0  0  0  0  0  0  0  0  0  0  0  0
   -1.1489  -29.8702  -16.4578 O   0  0  0  0  0  0  0  0  0  0  0  0
   -0.5498  -28.9424  -14.4941 O   0  0  0  0  0  0  0  0  0  0  0  0
  1  2  1  0
  2  3  1  0
  3  4  1  0
  4  5  1  0
  5  6  2  0
  6  7  1  0
  7  8  2  0
  7  9  1  0
  9 10  1  0
 10 11  2  0
 11 12  1  0
 12 13  2  0
 13 14  1  0
 12 15  1  0
 15 16  1  0
 16 17  1  0
 17 18  1  0
 18 19  1  0
 19 20  1  0
 11 21  1  0
  6 22  1  0
 22 23  2  0
 22 24  1  0
  3  1  1  0
 14  4  1  0
 14  9  2  0
 20 15  1  0
M  END
$$$$
