
     RDKit          3D

 24 27  0  0  0  0  0  0  0  0999 V2000
    2.0797  -32.2893   -8.1538 C   0  0  0  0  0  0  0  0  0  0  0  0
    2.3139  -30.8389   -7.8418 C   0  0  0  0  0  0  0  0  0  0  0  0
    1.0437  -31.5213   -7.3871 C   0  0  0  0  0  0  0  0  0  0  0  0
   -0.2102  -31.1564   -7.9960 N   0  0  0  0  0  0  0  0  0  0  0  0
   -0.3162  -31.0921   -9.3421 C   0  0  0  0  0  0  0  0  0  0  0  0
   -1.4897  -30.7487   -9.9814 C   0  0  0  0  0  0  0  0  0  0  0  0
   -2.5945  -30.4614   -9.1932 C   0  0  0  0  0  0  0  0  0  0  0  0
   -3.6557  -30.1504   -9.7873 O   0  0  0  0  0  0  0  0  0  0  0  0
   -2.4699  -30.5315   -7.8245 C   0  0  0  0  0  0  0  0  0  0  0  0
   -3.5741  -30.2440   -7.0467 C   0  0  0  0  0  0  0  0  0  0  0  0
   -3.5490  -30.2867   -5.6641 C   0  0  0  0  0  0  0  0  0  0  0  0
   -2.3515  -30.6358   -5.0647 C   0  0  0  0  0  0  0  0  0  0  0  0
   -1.2395  -30.9254   -5.8423 C   0  0  0  0  0  0  0  0  0  0  0  0
   -1.2757  -30.8796   -7.2218 C   0  0  0  0  0  0  0  0  0  0  0  0
   -2.2046  -30.7134   -3.6434 N   0  0  0  0  0  0  0  0  0  0  0  0
   -2.4968  -29.5152   -2.8618 C   0  0  0  0  0  0  0  0  0  0  0  0
   -1.9334  -29.7692   -1.4764 C   0  0  0  0  0  0  0  0  0  0  0  0
   -2.6679  -30.9090   -0.9696 N   0  0  0  0  0  0  0  0  0  0  0  0
   -2.2515  -32.1068   -1.6194 C   0  0  0  0  0  0  0  0  0  0  0  0
   -1.7797  -31.9516   -3.0346 C   0  0  0  0  0  0  0  0  0  0  0  0
   -4.6320  -30.0046   -4.9090 F   0  0  0  0  0  0  0  0  0  0  0  0
   -1.5362  -30.6981  -11.4367 C   0  0  0  0  0  0  0  0  0  0  0  0
   -2.5967  -30.4037  -12.0674 O   0  0  0  0  0  0  0  0  0  0  0  0
   -0.4201  -30.9703  -12.1976 O   0  0  0  0  0  0  0  0  0  0  0  0
  1  2  1  0
  2  3  1  0
  3  4  1  0
  4  5  1  0
  5  6  2  0
  6  7  1  0
  7  8  2  0
  7  9  1  0
  9 10  1  0
 10 11  2  0
 11 12  1  0
 12 13  2  0
 13 14  1  0
 12 15  1  0
 15 16  1  0
 16 17  1  0
 17 18  1  0
 18 19  1  0
 19 20  1  0
 11 21  1  0
  6 22  1  0
 22 23  2  0
 22 24  1  0
  3  1  1  0
 14  4  1  0
 14  9  2  0
 20 15  1  0
M  END
$$$$
