
     RDKit          3D

 24 27  0  0  0  0  0  0  0  0999 V2000
   35.6076  -45.4929   10.6633 C   0  0  0  0  0  0  0  0  0  0  0  0
   34.9514  -45.8370   11.9697 C   0  0  0  0  0  0  0  0  0  0  0  0
   35.4977  -44.4471   11.7334 C   0  0  0  0  0  0  0  0  0  0  0  0
   36.6592  -44.0113   12.4664 N   0  0  0  0  0  0  0  0  0  0  0  0
   37.5006  -44.9215   13.0057 C   0  0  0  0  0  0  0  0  0  0  0  0
   38.6274  -44.5645   13.7173 C   0  0  0  0  0  0  0  0  0  0  0  0
   38.8903  -43.2115   13.8747 C   0  0  0  0  0  0  0  0  0  0  0  0
   39.9185  -42.9003   14.5241 O   0  0  0  0  0  0  0  0  0  0  0  0
   38.0238  -42.2978   13.3195 C   0  0  0  0  0  0  0  0  0  0  0  0
   38.2922  -40.9529   13.4805 C   0  0  0  0  0  0  0  0  0  0  0  0
   37.4821  -39.9592   12.9605 C   0  0  0  0  0  0  0  0  0  0  0  0
   36.3626  -40.3622   12.2538 C   0  0  0  0  0  0  0  0  0  0  0  0
   36.0891  -41.7125   12.0896 C   0  0  0  0  0  0  0  0  0  0  0  0
   36.9045  -42.6962   12.6130 C   0  0  0  0  0  0  0  0  0  0  0  0
   35.4516  -39.4258   11.6702 N   0  0  0  0  0  0  0  0  0  0  0  0
   35.4134  -38.0758   12.2252 C   0  0  0  0  0  0  0  0  0  0  0  0
   34.1558  -37.4303   11.6749 C   0  0  0  0  0  0  0  0  0  0  0  0
   34.3427  -37.3944   10.2400 N   0  0  0  0  0  0  0  0  0  0  0  0
   34.2058  -38.6976    9.6807 C   0  0  0  0  0  0  0  0  0  0  0  0
   34.6118  -39.8354   10.5696 C   0  0  0  0  0  0  0  0  0  0  0  0
   37.7498  -38.6457   13.1212 F   0  0  0  0  0  0  0  0  0  0  0  0
   39.4930  -45.5963   14.2728 C   0  0  0  0  0  0  0  0  0  0  0  0
   39.2713  -46.8320   14.0909 O   0  0  0  0  0  0  0  0  0  0  0  0
   40.5999  -45.2716   15.0265 O   0  0  0  0  0  0  0  0  0  0  0  0
  1  2  1  0
  2  3  1  0
  3  4  1  0
  4  5  1  0
  5  6  2  0
  6  7  1  0
  7  8  2  0
  7  9  1  0
  9 10  1  0
 10 11  2  0
 11 12  1  0
 12 13  2  0
 13 14  1  0
 12 15  1  0
 15 16  1  0
 16 17  1  0
 17 18  1  0
 18 19  1  0
 19 20  1  0
 11 21  1  0
  6 22  1  0
 22 23  2  0
 22 24  1  0
  3  1  1  0
 14  4  1  0
 14  9  2  0
 20 15  1  0
M  END
$$$$
