
     RDKit          3D

 24 27  0  0  0  0  0  0  0  0999 V2000
    6.0927  -46.9103    4.5915 C   0  0  0  0  0  0  0  0  0  0  0  0
    7.1590  -47.8354    5.1043 C   0  0  0  0  0  0  0  0  0  0  0  0
    7.5323  -46.6224    4.2826 C   0  0  0  0  0  0  0  0  0  0  0  0
    8.0563  -46.8048    2.9528 N   0  0  0  0  0  0  0  0  0  0  0  0
    8.5711  -47.9995    2.5856 C   0  0  0  0  0  0  0  0  0  0  0  0
    9.0867  -48.2336    1.3275 C   0  0  0  0  0  0  0  0  0  0  0  0
    9.0669  -47.1876    0.4164 C   0  0  0  0  0  0  0  0  0  0  0  0
    9.5390  -47.4138   -0.7246 O   0  0  0  0  0  0  0  0  0  0  0  0
    8.5393  -45.9778    0.8060 C   0  0  0  0  0  0  0  0  0  0  0  0
    8.5231  -44.9415   -0.1065 C   0  0  0  0  0  0  0  0  0  0  0  0
    8.0145  -43.6894    0.1898 C   0  0  0  0  0  0  0  0  0  0  0  0
    7.5075  -43.4988    1.4633 C   0  0  0  0  0  0  0  0  0  0  0  0
    7.5218  -44.5373    2.3833 C   0  0  0  0  0  0  0  0  0  0  0  0
    8.0320  -45.7832    2.0770 C   0  0  0  0  0  0  0  0  0  0  0  0
    6.9555  -42.2477    1.8847 N   0  0  0  0  0  0  0  0  0  0  0  0
    5.6615  -41.8542    1.3346 C   0  0  0  0  0  0  0  0  0  0  0  0
    5.4949  -40.3826    1.6631 C   0  0  0  0  0  0  0  0  0  0  0  0
    5.4846  -40.3140    3.1090 N   0  0  0  0  0  0  0  0  0  0  0  0
    6.7918  -40.5287    3.6335 C   0  0  0  0  0  0  0  0  0  0  0  0
    7.6806  -41.4259    2.8245 C   0  0  0  0  0  0  0  0  0  0  0  0
    8.0014  -42.6801   -0.7067 F   0  0  0  0  0  0  0  0  0  0  0  0
    9.6269  -49.5454    0.9962 C   0  0  0  0  0  0  0  0  0  0  0  0
    9.9297  -49.8693   -0.1923 O   0  0  0  0  0  0  0  0  0  0  0  0
    9.8341  -50.4996    1.9685 O   0  0  0  0  0  0  0  0  0  0  0  0
  1  2  1  0
  2  3  1  0
  3  4  1  0
  4  5  1  0
  5  6  2  0
  6  7  1  0
  7  8  2  0
  7  9  1  0
  9 10  1  0
 10 11  2  0
 11 12  1  0
 12 13  2  0
 13 14  1  0
 12 15  1  0
 15 16  1  0
 16 17  1  0
 17 18  1  0
 18 19  1  0
 19 20  1  0
 11 21  1  0
  6 22  1  0
 22 23  2  0
 22 24  1  0
  3  1  1  0
 14  4  1  0
 14  9  2  0
 20 15  1  0
M  END
$$$$
