
     RDKit          3D

 25 24  0  0  0  0  0  0  0  0999 V2000
  -15.0682  -19.9792   -3.3917 C   0  0  0  0  0  0  0  0  0  0  0  0
  -14.5391  -19.7296   -4.5306 O   0  0  0  0  0  0  0  0  0  0  0  0
  -14.8590  -19.0025   -2.3311 C   0  0  0  0  0  0  0  0  0  0  0  0
  -14.1794  -17.7179   -2.7111 C   0  0  0  0  0  0  0  0  0  0  0  0
  -14.1425  -16.6605   -1.6857 C   0  0  0  0  0  0  0  0  0  0  0  0
  -13.3584  -15.4176   -1.9424 C   0  0  0  0  0  0  0  0  0  0  0  0
  -13.5919  -14.2935   -1.0210 C   0  0  0  0  0  0  0  0  0  0  0  0
  -12.7682  -13.0476   -1.2779 C   0  0  0  0  0  0  0  0  0  0  0  0
  -13.0854  -11.8568   -0.4712 C   0  0  0  0  0  0  0  0  0  0  0  0
  -13.3270  -12.1310    0.8694 F   0  0  0  0  0  0  0  0  0  0  0  0
  -14.3586  -11.4178   -0.9314 F   0  0  0  0  0  0  0  0  0  0  0  0
  -12.2904  -10.7515   -0.6679 F   0  0  0  0  0  0  0  0  0  0  0  0
  -12.9906  -12.7214   -2.6181 F   0  0  0  0  0  0  0  0  0  0  0  0
  -11.4382  -13.3436   -1.1606 F   0  0  0  0  0  0  0  0  0  0  0  0
  -13.5849  -14.6372    0.2971 F   0  0  0  0  0  0  0  0  0  0  0  0
  -14.9094  -13.8286   -1.3062 F   0  0  0  0  0  0  0  0  0  0  0  0
  -12.0190  -15.8491   -1.9368 F   0  0  0  0  0  0  0  0  0  0  0  0
  -13.5767  -14.9976   -3.2621 F   0  0  0  0  0  0  0  0  0  0  0  0
  -13.5792  -17.2536   -0.5246 F   0  0  0  0  0  0  0  0  0  0  0  0
  -15.4472  -16.3702   -1.2732 F   0  0  0  0  0  0  0  0  0  0  0  0
  -12.9398  -18.0522   -3.2164 F   0  0  0  0  0  0  0  0  0  0  0  0
  -14.9100  -17.2709   -3.8492 F   0  0  0  0  0  0  0  0  0  0  0  0
  -14.1546  -19.6323   -1.2925 F   0  0  0  0  0  0  0  0  0  0  0  0
  -16.0846  -18.6363   -1.7485 F   0  0  0  0  0  0  0  0  0  0  0  0
  -15.7814  -21.1566   -3.3190 O   0  0  0  0  0  0  0  0  0  0  0  0
  1  2  2  0
  1  3  1  0
  3  4  1  0
  4  5  1  0
  5  6  1  0
  6  7  1  0
  7  8  1  0
  8  9  1  0
  9 10  1  0
  9 11  1  0
  9 12  1  0
  8 13  1  0
  8 14  1  0
  7 15  1  0
  7 16  1  0
  6 17  1  0
  6 18  1  0
  5 19  1  0
  5 20  1  0
  4 21  1  0
  4 22  1  0
  3 23  1  0
  3 24  1  0
  1 25  1  0
M  END
$$$$
