
     RDKit          3D

 25 24  0  0  0  0  0  0  0  0999 V2000
   -5.6873  -12.0295   -5.6623 C   0  0  0  0  0  0  0  0  0  0  0  0
   -5.1252  -11.2791   -4.7904 O   0  0  0  0  0  0  0  0  0  0  0  0
   -5.7224  -11.5449   -7.0357 C   0  0  0  0  0  0  0  0  0  0  0  0
   -4.7904  -10.4203   -7.3863 C   0  0  0  0  0  0  0  0  0  0  0  0
   -4.7748   -9.9886   -8.7950 C   0  0  0  0  0  0  0  0  0  0  0  0
   -3.8970   -8.8539   -9.2041 C   0  0  0  0  0  0  0  0  0  0  0  0
   -4.0235   -8.3972  -10.5980 C   0  0  0  0  0  0  0  0  0  0  0  0
   -3.3180   -7.0986  -10.9334 C   0  0  0  0  0  0  0  0  0  0  0  0
   -3.3964   -6.6350  -12.3293 C   0  0  0  0  0  0  0  0  0  0  0  0
   -4.6605   -6.7550  -12.8938 F   0  0  0  0  0  0  0  0  0  0  0  0
   -2.6319   -7.5709  -13.0810 F   0  0  0  0  0  0  0  0  0  0  0  0
   -2.7823   -5.4376  -12.6147 F   0  0  0  0  0  0  0  0  0  0  0  0
   -1.9704   -7.3169  -10.6360 F   0  0  0  0  0  0  0  0  0  0  0  0
   -3.7511   -6.1099  -10.0938 F   0  0  0  0  0  0  0  0  0  0  0  0
   -5.2968   -8.4165  -11.0816 F   0  0  0  0  0  0  0  0  0  0  0  0
   -3.2846   -9.3338  -11.3791 F   0  0  0  0  0  0  0  0  0  0  0  0
   -4.1929   -7.8386   -8.2759 F   0  0  0  0  0  0  0  0  0  0  0  0
   -2.5608   -9.1832   -8.9363 F   0  0  0  0  0  0  0  0  0  0  0  0
   -6.1040   -9.5947   -9.1037 F   0  0  0  0  0  0  0  0  0  0  0  0
   -4.5919  -11.1042   -9.6188 F   0  0  0  0  0  0  0  0  0  0  0  0
   -5.0352   -9.4002   -6.4901 F   0  0  0  0  0  0  0  0  0  0  0  0
   -3.5076  -10.9127   -7.0109 F   0  0  0  0  0  0  0  0  0  0  0  0
   -7.0461  -11.1864   -7.3369 F   0  0  0  0  0  0  0  0  0  0  0  0
   -5.4306  -12.5858   -7.9341 F   0  0  0  0  0  0  0  0  0  0  0  0
   -6.1899  -13.2188   -5.1793 O   0  0  0  0  0  0  0  0  0  0  0  0
  1  2  2  0
  1  3  1  0
  3  4  1  0
  4  5  1  0
  5  6  1  0
  6  7  1  0
  7  8  1  0
  8  9  1  0
  9 10  1  0
  9 11  1  0
  9 12  1  0
  8 13  1  0
  8 14  1  0
  7 15  1  0
  7 16  1  0
  6 17  1  0
  6 18  1  0
  5 19  1  0
  5 20  1  0
  4 21  1  0
  4 22  1  0
  3 23  1  0
  3 24  1  0
  1 25  1  0
M  END
$$$$
