
     RDKit          3D

 25 24  0  0  0  0  0  0  0  0999 V2000
   -7.9484  -10.2817    1.1490 C   0  0  0  0  0  0  0  0  0  0  0  0
   -8.9976   -9.7319    1.5690 O   0  0  0  0  0  0  0  0  0  0  0  0
   -8.0289  -11.0060   -0.1920 C   0  0  0  0  0  0  0  0  0  0  0  0
   -8.0900  -12.4480    0.1462 C   0  0  0  0  0  0  0  0  0  0  0  0
   -8.3179  -13.4261   -0.9683 C   0  0  0  0  0  0  0  0  0  0  0  0
   -8.5340  -14.8405   -0.5960 C   0  0  0  0  0  0  0  0  0  0  0  0
   -9.1976  -15.7309   -1.5755 C   0  0  0  0  0  0  0  0  0  0  0  0
   -9.7218  -17.0396   -1.1702 C   0  0  0  0  0  0  0  0  0  0  0  0
  -10.5597  -17.7687   -2.1982 C   0  0  0  0  0  0  0  0  0  0  0  0
  -10.9064  -19.0359   -1.7710 F   0  0  0  0  0  0  0  0  0  0  0  0
   -9.8702  -17.7984   -3.3849 F   0  0  0  0  0  0  0  0  0  0  0  0
  -11.7510  -17.1043   -2.4162 F   0  0  0  0  0  0  0  0  0  0  0  0
   -8.5712  -17.8665   -1.0383 F   0  0  0  0  0  0  0  0  0  0  0  0
  -10.2750  -17.0544    0.0696 F   0  0  0  0  0  0  0  0  0  0  0  0
  -10.1774  -14.9602   -2.2090 F   0  0  0  0  0  0  0  0  0  0  0  0
   -8.2611  -15.9661   -2.6002 F   0  0  0  0  0  0  0  0  0  0  0  0
   -7.4005  -15.3594   -0.0015 F   0  0  0  0  0  0  0  0  0  0  0  0
   -9.4642  -14.8067    0.4823 F   0  0  0  0  0  0  0  0  0  0  0  0
   -9.4690  -12.9212   -1.6379 F   0  0  0  0  0  0  0  0  0  0  0  0
   -7.3310  -13.2173   -1.9439 F   0  0  0  0  0  0  0  0  0  0  0  0
   -9.0275  -12.5887    1.1614 F   0  0  0  0  0  0  0  0  0  0  0  0
   -6.8633  -12.7770    0.7539 F   0  0  0  0  0  0  0  0  0  0  0  0
   -9.1836  -10.5122   -0.8073 F   0  0  0  0  0  0  0  0  0  0  0  0
   -6.9670  -10.6286   -0.9837 F   0  0  0  0  0  0  0  0  0  0  0  0
   -6.7587  -10.2440    1.8575 O   0  0  0  0  0  0  0  0  0  0  0  0
  1  2  2  0
  1  3  1  0
  3  4  1  0
  4  5  1  0
  5  6  1  0
  6  7  1  0
  7  8  1  0
  8  9  1  0
  9 10  1  0
  9 11  1  0
  9 12  1  0
  8 13  1  0
  8 14  1  0
  7 15  1  0
  7 16  1  0
  6 17  1  0
  6 18  1  0
  5 19  1  0
  5 20  1  0
  4 21  1  0
  4 22  1  0
  3 23  1  0
  3 24  1  0
  1 25  1  0
M  END
$$$$
