
     RDKit          3D

 25 24  0  0  0  0  0  0  0  0999 V2000
  -11.2604  -16.9631   -6.7877 C   0  0  0  0  0  0  0  0  0  0  0  0
  -10.8425  -16.1246   -7.6254 O   0  0  0  0  0  0  0  0  0  0  0  0
  -11.4738  -16.4740   -5.3578 C   0  0  0  0  0  0  0  0  0  0  0  0
  -10.1717  -16.6747   -4.6782 C   0  0  0  0  0  0  0  0  0  0  0  0
   -9.9886  -16.0818   -3.3124 C   0  0  0  0  0  0  0  0  0  0  0  0
   -8.7450  -16.4189   -2.5876 C   0  0  0  0  0  0  0  0  0  0  0  0
   -8.5129  -15.7964   -1.2642 C   0  0  0  0  0  0  0  0  0  0  0  0
   -7.3056  -16.1019   -0.4889 C   0  0  0  0  0  0  0  0  0  0  0  0
   -7.3062  -15.6422    0.9530 C   0  0  0  0  0  0  0  0  0  0  0  0
   -8.3511  -16.1963    1.6668 F   0  0  0  0  0  0  0  0  0  0  0  0
   -7.3401  -14.2700    0.9760 F   0  0  0  0  0  0  0  0  0  0  0  0
   -6.1525  -16.0488    1.5948 F   0  0  0  0  0  0  0  0  0  0  0  0
   -7.2927  -17.5207   -0.3812 F   0  0  0  0  0  0  0  0  0  0  0  0
   -6.1461  -15.8156   -1.1346 F   0  0  0  0  0  0  0  0  0  0  0  0
   -8.6725  -14.4188   -1.4424 F   0  0  0  0  0  0  0  0  0  0  0  0
   -9.6139  -16.1463   -0.4594 F   0  0  0  0  0  0  0  0  0  0  0  0
   -8.5060  -17.7778   -2.6495 F   0  0  0  0  0  0  0  0  0  0  0  0
   -7.6911  -15.8804   -3.3802 F   0  0  0  0  0  0  0  0  0  0  0  0
  -10.0515  -14.6768   -3.5371 F   0  0  0  0  0  0  0  0  0  0  0  0
  -11.1702  -16.2866   -2.5832 F   0  0  0  0  0  0  0  0  0  0  0  0
   -9.1832  -16.2605   -5.5618 F   0  0  0  0  0  0  0  0  0  0  0  0
   -9.9804  -18.0651   -4.5652 F   0  0  0  0  0  0  0  0  0  0  0  0
  -11.8554  -15.1342   -5.4810 F   0  0  0  0  0  0  0  0  0  0  0  0
  -12.5419  -17.1393   -4.7981 F   0  0  0  0  0  0  0  0  0  0  0  0
  -11.5226  -18.2803   -7.1268 O   0  0  0  0  0  0  0  0  0  0  0  0
  1  2  2  0
  1  3  1  0
  3  4  1  0
  4  5  1  0
  5  6  1  0
  6  7  1  0
  7  8  1  0
  8  9  1  0
  9 10  1  0
  9 11  1  0
  9 12  1  0
  8 13  1  0
  8 14  1  0
  7 15  1  0
  7 16  1  0
  6 17  1  0
  6 18  1  0
  5 19  1  0
  5 20  1  0
  4 21  1  0
  4 22  1  0
  3 23  1  0
  3 24  1  0
  1 25  1  0
M  END
$$$$
