
     RDKit          3D

 25 24  0  0  0  0  0  0  0  0999 V2000
  -14.9874  -16.8772   -7.6718 C   0  0  0  0  0  0  0  0  0  0  0  0
  -15.2827  -15.6984   -7.9927 O   0  0  0  0  0  0  0  0  0  0  0  0
  -15.6936  -17.4665   -6.4539 C   0  0  0  0  0  0  0  0  0  0  0  0
  -14.7008  -17.3965   -5.3553 C   0  0  0  0  0  0  0  0  0  0  0  0
  -15.1259  -17.8471   -3.9889 C   0  0  0  0  0  0  0  0  0  0  0  0
  -14.1311  -17.7431   -2.9003 C   0  0  0  0  0  0  0  0  0  0  0  0
  -14.5424  -18.1365   -1.5333 C   0  0  0  0  0  0  0  0  0  0  0  0
  -13.6618  -17.9008   -0.3840 C   0  0  0  0  0  0  0  0  0  0  0  0
  -14.0857  -18.5385    0.9214 C   0  0  0  0  0  0  0  0  0  0  0  0
  -13.1545  -18.3288    1.9201 F   0  0  0  0  0  0  0  0  0  0  0  0
  -14.3120  -19.8749    0.7037 F   0  0  0  0  0  0  0  0  0  0  0  0
  -15.2626  -17.9778    1.3784 F   0  0  0  0  0  0  0  0  0  0  0  0
  -12.4550  -18.5827   -0.7057 F   0  0  0  0  0  0  0  0  0  0  0  0
  -13.2745  -16.6076   -0.2395 F   0  0  0  0  0  0  0  0  0  0  0  0
  -15.8108  -17.5846   -1.3285 F   0  0  0  0  0  0  0  0  0  0  0  0
  -14.7969  -19.5206   -1.5753 F   0  0  0  0  0  0  0  0  0  0  0  0
  -12.9114  -18.2412   -3.3147 F   0  0  0  0  0  0  0  0  0  0  0  0
  -13.8688  -16.3497   -2.7635 F   0  0  0  0  0  0  0  0  0  0  0  0
  -16.2535  -17.0289   -3.6932 F   0  0  0  0  0  0  0  0  0  0  0  0
  -15.7361  -19.1049   -4.1119 F   0  0  0  0  0  0  0  0  0  0  0  0
  -14.1979  -16.1017   -5.3428 F   0  0  0  0  0  0  0  0  0  0  0  0
  -13.6067  -18.1936   -5.7426 F   0  0  0  0  0  0  0  0  0  0  0  0
  -16.8216  -16.6631   -6.2590 F   0  0  0  0  0  0  0  0  0  0  0  0
  -16.1547  -18.7289   -6.7549 F   0  0  0  0  0  0  0  0  0  0  0  0
  -14.0630  -17.6272   -8.3800 O   0  0  0  0  0  0  0  0  0  0  0  0
  1  2  2  0
  1  3  1  0
  3  4  1  0
  4  5  1  0
  5  6  1  0
  6  7  1  0
  7  8  1  0
  8  9  1  0
  9 10  1  0
  9 11  1  0
  9 12  1  0
  8 13  1  0
  8 14  1  0
  7 15  1  0
  7 16  1  0
  6 17  1  0
  6 18  1  0
  5 19  1  0
  5 20  1  0
  4 21  1  0
  4 22  1  0
  3 23  1  0
  3 24  1  0
  1 25  1  0
M  END
$$$$
