
     RDKit          3D

 25 24  0  0  0  0  0  0  0  0999 V2000
   -8.3211  -15.6880   -0.5996 C   0  0  0  0  0  0  0  0  0  0  0  0
   -7.1532  -15.8940   -0.1835 O   0  0  0  0  0  0  0  0  0  0  0  0
   -8.4702  -15.1328   -2.0135 C   0  0  0  0  0  0  0  0  0  0  0  0
   -8.9760  -16.2649   -2.8260 C   0  0  0  0  0  0  0  0  0  0  0  0
   -9.6850  -15.9515   -4.1104 C   0  0  0  0  0  0  0  0  0  0  0  0
  -10.3549  -17.0709   -4.8061 C   0  0  0  0  0  0  0  0  0  0  0  0
  -11.3877  -16.7513   -5.8179 C   0  0  0  0  0  0  0  0  0  0  0  0
  -12.2562  -17.7991   -6.3653 C   0  0  0  0  0  0  0  0  0  0  0  0
  -13.3125  -17.3423   -7.3481 C   0  0  0  0  0  0  0  0  0  0  0  0
  -12.7743  -16.5609   -8.3522 F   0  0  0  0  0  0  0  0  0  0  0  0
  -14.2983  -16.6822   -6.6573 F   0  0  0  0  0  0  0  0  0  0  0  0
  -13.8906  -18.4255   -7.9811 F   0  0  0  0  0  0  0  0  0  0  0  0
  -11.3949  -18.6057   -7.1606 F   0  0  0  0  0  0  0  0  0  0  0  0
  -12.7383  -18.6611   -5.4337 F   0  0  0  0  0  0  0  0  0  0  0  0
  -12.1325  -15.6875   -5.2993 F   0  0  0  0  0  0  0  0  0  0  0  0
  -10.7127  -16.1700   -6.9082 F   0  0  0  0  0  0  0  0  0  0  0  0
   -9.4290  -18.0214   -5.1892 F   0  0  0  0  0  0  0  0  0  0  0  0
  -11.0984  -17.7483   -3.7974 F   0  0  0  0  0  0  0  0  0  0  0  0
  -10.6461  -14.9677   -3.7405 F   0  0  0  0  0  0  0  0  0  0  0  0
   -8.8220  -15.1900   -4.9134 F   0  0  0  0  0  0  0  0  0  0  0  0
   -9.7481  -17.0564   -1.9853 F   0  0  0  0  0  0  0  0  0  0  0  0
   -7.8644  -17.0695   -3.1414 F   0  0  0  0  0  0  0  0  0  0  0  0
   -9.3668  -14.0659   -1.8963 F   0  0  0  0  0  0  0  0  0  0  0  0
   -7.2705  -14.5974   -2.4269 F   0  0  0  0  0  0  0  0  0  0  0  0
   -9.4392  -15.9469    0.1758 O   0  0  0  0  0  0  0  0  0  0  0  0
  1  2  2  0
  1  3  1  0
  3  4  1  0
  4  5  1  0
  5  6  1  0
  6  7  1  0
  7  8  1  0
  8  9  1  0
  9 10  1  0
  9 11  1  0
  9 12  1  0
  8 13  1  0
  8 14  1  0
  7 15  1  0
  7 16  1  0
  6 17  1  0
  6 18  1  0
  5 19  1  0
  5 20  1  0
  4 21  1  0
  4 22  1  0
  3 23  1  0
  3 24  1  0
  1 25  1  0
M  END
$$$$
