
     RDKit          3D

  5  4  0  0  0  0  0  0  0  0999 V2000
    4.2416   -0.2893   -5.4570 C   0  0  0  0  0  0  0  0  0  0  0  0
    4.1281   -1.5654   -4.6979 C   0  0  0  0  0  0  0  0  0  0  0  0
    3.2757   -2.4317   -5.0745 O   0  0  0  0  0  0  0  0  0  0  0  0
    4.8927   -1.8736   -3.6036 O   0  0  0  0  0  0  0  0  0  0  0  0
    4.0400   -0.4918   -6.8002 F   0  0  0  0  0  0  0  0  0  0  0  0
  1  2  1  0
  2  3  2  0
  2  4  1  0
  1  5  1  0
M  END
$$$$
