
     RDKit          3D

  5  4  0  0  0  0  0  0  0  0999 V2000
    4.2683    0.5608   -5.6307 C   0  0  0  0  0  0  0  0  0  0  0  0
    4.2917   -0.9157   -5.4386 C   0  0  0  0  0  0  0  0  0  0  0  0
    3.3187   -1.4737   -4.8377 O   0  0  0  0  0  0  0  0  0  0  0  0
    5.3074   -1.7263   -5.8727 O   0  0  0  0  0  0  0  0  0  0  0  0
    2.9858    1.0167   -5.8129 F   0  0  0  0  0  0  0  0  0  0  0  0
  1  2  1  0
  2  3  2  0
  2  4  1  0
  1  5  1  0
M  END
$$$$
