
     RDKit          3D

  5  4  0  0  0  0  0  0  0  0999 V2000
    3.8681    0.2924   -5.6741 C   0  0  0  0  0  0  0  0  0  0  0  0
    4.0239   -1.0097   -4.9686 C   0  0  0  0  0  0  0  0  0  0  0  0
    3.0655   -1.8461   -5.0017 O   0  0  0  0  0  0  0  0  0  0  0  0
    5.1483   -1.3729   -4.2753 O   0  0  0  0  0  0  0  0  0  0  0  0
    5.0755    0.7505   -6.1415 F   0  0  0  0  0  0  0  0  0  0  0  0
  1  2  1  0
  2  3  2  0
  2  4  1  0
  1  5  1  0
M  END
$$$$
