
     RDKit          3D

  5  4  0  0  0  0  0  0  0  0999 V2000
    4.0402   -7.6264  -15.2704 C   0  0  0  0  0  0  0  0  0  0  0  0
    2.6604   -7.3796  -15.7729 C   0  0  0  0  0  0  0  0  0  0  0  0
    2.2865   -6.1813  -15.9815 O   0  0  0  0  0  0  0  0  0  0  0  0
    1.7521   -8.3726  -16.0298 O   0  0  0  0  0  0  0  0  0  0  0  0
    4.7353   -6.4501  -15.1322 F   0  0  0  0  0  0  0  0  0  0  0  0
  1  2  1  0
  2  3  2  0
  2  4  1  0
  1  5  1  0
M  END
$$$$
