
     RDKit          3D

 25 24  0  0  0  0  0  0  0  0999 V2000
   -6.5729  -15.8471    7.4573 C   0  0  0  0  0  0  0  0  0  0  0  0
   -5.5046  -16.2587    6.9372 O   0  0  0  0  0  0  0  0  0  0  0  0
   -7.0398  -14.4315    7.2658 C   0  0  0  0  0  0  0  0  0  0  0  0
   -5.8479  -13.6358    6.8637 C   0  0  0  0  0  0  0  0  0  0  0  0
   -6.0734  -12.2337    6.4668 C   0  0  0  0  0  0  0  0  0  0  0  0
   -4.9883  -11.4754    5.8218 C   0  0  0  0  0  0  0  0  0  0  0  0
   -5.2824  -10.0772    5.4249 C   0  0  0  0  0  0  0  0  0  0  0  0
   -3.9932   -9.5328    4.8015 C   0  0  0  0  0  0  0  0  0  0  0  0
   -4.3842   -8.2310    4.1197 C   0  0  0  0  0  0  0  0  0  0  0  0
   -3.1855   -7.7068    3.6347 F   0  0  0  0  0  0  0  0  0  0  0  0
   -5.2295   -8.4390    3.0548 F   0  0  0  0  0  0  0  0  0  0  0  0
   -4.8990   -7.3930    5.0831 F   0  0  0  0  0  0  0  0  0  0  0  0
   -3.5893  -10.4708    3.8670 F   0  0  0  0  0  0  0  0  0  0  0  0
   -3.0132   -9.3265    5.7503 F   0  0  0  0  0  0  0  0  0  0  0  0
   -5.5616   -9.3511    6.5894 F   0  0  0  0  0  0  0  0  0  0  0  0
   -6.2558   -9.8829    4.4999 F   0  0  0  0  0  0  0  0  0  0  0  0
   -4.3244  -12.1707    4.8064 F   0  0  0  0  0  0  0  0  0  0  0  0
   -3.9860  -11.3633    6.8041 F   0  0  0  0  0  0  0  0  0  0  0  0
   -6.4116  -11.5386    7.6362 F   0  0  0  0  0  0  0  0  0  0  0  0
   -7.1949  -12.1880    5.6656 F   0  0  0  0  0  0  0  0  0  0  0  0
   -5.4041  -14.2705    5.6867 F   0  0  0  0  0  0  0  0  0  0  0  0
   -4.7676  -13.8167    7.7195 F   0  0  0  0  0  0  0  0  0  0  0  0
   -7.9064  -14.4249    6.1818 F   0  0  0  0  0  0  0  0  0  0  0  0
   -7.7222  -14.0198    8.3542 F   0  0  0  0  0  0  0  0  0  0  0  0
   -7.2973  -16.7556    8.2127 O   0  0  0  0  0  0  0  0  0  0  0  0
  1  2  2  0
  1  3  1  0
  3  4  1  0
  4  5  1  0
  5  6  1  0
  6  7  1  0
  7  8  1  0
  8  9  1  0
  9 10  1  0
  9 11  1  0
  9 12  1  0
  8 13  1  0
  8 14  1  0
  7 15  1  0
  7 16  1  0
  6 17  1  0
  6 18  1  0
  5 19  1  0
  5 20  1  0
  4 21  1  0
  4 22  1  0
  3 23  1  0
  3 24  1  0
  1 25  1  0
M  END
$$$$
