
     RDKit          3D

 25 24  0  0  0  0  0  0  0  0999 V2000
   -3.6639  -19.5717    8.6714 C   0  0  0  0  0  0  0  0  0  0  0  0
   -3.6642  -20.3563    7.6889 O   0  0  0  0  0  0  0  0  0  0  0  0
   -4.7346  -18.5306    8.8397 C   0  0  0  0  0  0  0  0  0  0  0  0
   -4.2267  -17.2843    8.2039 C   0  0  0  0  0  0  0  0  0  0  0  0
   -5.0939  -16.0932    8.2629 C   0  0  0  0  0  0  0  0  0  0  0  0
   -4.7675  -14.9128    7.4453 C   0  0  0  0  0  0  0  0  0  0  0  0
   -5.6753  -13.7449    7.5492 C   0  0  0  0  0  0  0  0  0  0  0  0
   -4.7776  -12.5313    7.8106 C   0  0  0  0  0  0  0  0  0  0  0  0
   -5.7110  -11.3316    7.8546 C   0  0  0  0  0  0  0  0  0  0  0  0
   -4.8664  -10.2209    7.8562 F   0  0  0  0  0  0  0  0  0  0  0  0
   -6.5168  -11.2627    6.7420 F   0  0  0  0  0  0  0  0  0  0  0  0
   -6.4057  -11.3859    9.0420 F   0  0  0  0  0  0  0  0  0  0  0  0
   -3.9208  -12.4434    6.7270 F   0  0  0  0  0  0  0  0  0  0  0  0
   -4.0724  -12.6607    8.9893 F   0  0  0  0  0  0  0  0  0  0  0  0
   -6.5017  -13.9425    8.6624 F   0  0  0  0  0  0  0  0  0  0  0  0
   -6.4174  -13.4325    6.4571 F   0  0  0  0  0  0  0  0  0  0  0  0
   -4.4518  -15.2034    6.1144 F   0  0  0  0  0  0  0  0  0  0  0  0
   -3.5348  -14.4510    7.9447 F   0  0  0  0  0  0  0  0  0  0  0  0
   -5.0980  -15.6698    9.5992 F   0  0  0  0  0  0  0  0  0  0  0  0
   -6.3869  -16.4881    7.9906 F   0  0  0  0  0  0  0  0  0  0  0  0
   -4.1638  -17.6096    6.8345 F   0  0  0  0  0  0  0  0  0  0  0  0
   -2.8938  -17.0314    8.5066 F   0  0  0  0  0  0  0  0  0  0  0  0
   -5.8304  -18.9399    8.0929 F   0  0  0  0  0  0  0  0  0  0  0  0
   -5.1087  -18.4588   10.1338 F   0  0  0  0  0  0  0  0  0  0  0  0
   -2.6345  -19.7106    9.5889 O   0  0  0  0  0  0  0  0  0  0  0  0
  1  2  2  0
  1  3  1  0
  3  4  1  0
  4  5  1  0
  5  6  1  0
  6  7  1  0
  7  8  1  0
  8  9  1  0
  9 10  1  0
  9 11  1  0
  9 12  1  0
  8 13  1  0
  8 14  1  0
  7 15  1  0
  7 16  1  0
  6 17  1  0
  6 18  1  0
  5 19  1  0
  5 20  1  0
  4 21  1  0
  4 22  1  0
  3 23  1  0
  3 24  1  0
  1 25  1  0
M  END
$$$$
