
     RDKit          3D

 25 24  0  0  0  0  0  0  0  0999 V2000
   -0.7349    1.3414  -14.5481 C   0  0  0  0  0  0  0  0  0  0  0  0
   -0.1089    1.8074  -15.5340 O   0  0  0  0  0  0  0  0  0  0  0  0
   -0.0414    0.5131  -13.5033 C   0  0  0  0  0  0  0  0  0  0  0  0
    0.2743    1.4255  -12.3705 C   0  0  0  0  0  0  0  0  0  0  0  0
    0.3147    0.8368  -11.0192 C   0  0  0  0  0  0  0  0  0  0  0  0
    0.4469    1.7156   -9.8450 C   0  0  0  0  0  0  0  0  0  0  0  0
    0.8101    1.0756   -8.5576 C   0  0  0  0  0  0  0  0  0  0  0  0
    1.2014    2.2160   -7.6123 C   0  0  0  0  0  0  0  0  0  0  0  0
    2.1547    1.6013   -6.5994 C   0  0  0  0  0  0  0  0  0  0  0  0
    1.3682    1.3490   -5.4748 F   0  0  0  0  0  0  0  0  0  0  0  0
    2.6777    0.4079   -7.0401 F   0  0  0  0  0  0  0  0  0  0  0  0
    3.1074    2.5473   -6.2945 F   0  0  0  0  0  0  0  0  0  0  0  0
    0.0319    2.6256   -6.9954 F   0  0  0  0  0  0  0  0  0  0  0  0
    1.7956    3.2609   -8.2892 F   0  0  0  0  0  0  0  0  0  0  0  0
    1.9336    0.2701   -8.7816 F   0  0  0  0  0  0  0  0  0  0  0  0
   -0.1568    0.3731   -7.9155 F   0  0  0  0  0  0  0  0  0  0  0  0
   -0.5998    2.6297   -9.6890 F   0  0  0  0  0  0  0  0  0  0  0  0
    1.5328    2.5613  -10.1411 F   0  0  0  0  0  0  0  0  0  0  0  0
    1.4131   -0.0339  -10.9971 F   0  0  0  0  0  0  0  0  0  0  0  0
   -0.7995    0.0391  -10.8635 F   0  0  0  0  0  0  0  0  0  0  0  0
   -0.8215    2.3105  -12.3391 F   0  0  0  0  0  0  0  0  0  0  0  0
    1.3340    2.2809  -12.6488 F   0  0  0  0  0  0  0  0  0  0  0  0
   -0.9633   -0.4083  -13.0268 F   0  0  0  0  0  0  0  0  0  0  0  0
    0.9845   -0.1647  -14.0583 F   0  0  0  0  0  0  0  0  0  0  0  0
   -2.0891    1.6255  -14.4695 O   0  0  0  0  0  0  0  0  0  0  0  0
  1  2  2  0
  1  3  1  0
  3  4  1  0
  4  5  1  0
  5  6  1  0
  6  7  1  0
  7  8  1  0
  8  9  1  0
  9 10  1  0
  9 11  1  0
  9 12  1  0
  8 13  1  0
  8 14  1  0
  7 15  1  0
  7 16  1  0
  6 17  1  0
  6 18  1  0
  5 19  1  0
  5 20  1  0
  4 21  1  0
  4 22  1  0
  3 23  1  0
  3 24  1  0
  1 25  1  0
M  END
$$$$
