
     RDKit          3D

 25 24  0  0  0  0  0  0  0  0999 V2000
   -0.6429    1.3480  -10.5326 C   0  0  0  0  0  0  0  0  0  0  0  0
   -0.7901    2.2677  -11.3774 O   0  0  0  0  0  0  0  0  0  0  0  0
   -0.5327    1.6471   -9.0639 C   0  0  0  0  0  0  0  0  0  0  0  0
    0.9159    1.6074   -8.7242 C   0  0  0  0  0  0  0  0  0  0  0  0
    1.2779    1.6796   -7.2967 C   0  0  0  0  0  0  0  0  0  0  0  0
    2.6863    1.8690   -6.9106 C   0  0  0  0  0  0  0  0  0  0  0  0
    2.9665    2.1303   -5.4780 C   0  0  0  0  0  0  0  0  0  0  0  0
    4.4141    1.6881   -5.2411 C   0  0  0  0  0  0  0  0  0  0  0  0
    4.8415    2.3580   -3.9446 C   0  0  0  0  0  0  0  0  0  0  0  0
    3.6753    2.4409   -3.1831 F   0  0  0  0  0  0  0  0  0  0  0  0
    5.7598    1.6041   -3.2517 F   0  0  0  0  0  0  0  0  0  0  0  0
    5.2824    3.6250   -4.2545 F   0  0  0  0  0  0  0  0  0  0  0  0
    5.1476    2.1776   -6.3081 F   0  0  0  0  0  0  0  0  0  0  0  0
    4.5224    0.3154   -5.1549 F   0  0  0  0  0  0  0  0  0  0  0  0
    2.1164    1.3157   -4.7197 F   0  0  0  0  0  0  0  0  0  0  0  0
    2.8945    3.4168   -5.0529 F   0  0  0  0  0  0  0  0  0  0  0  0
    3.3996    2.7379   -7.7422 F   0  0  0  0  0  0  0  0  0  0  0  0
    3.3078    0.6338   -7.1753 F   0  0  0  0  0  0  0  0  0  0  0  0
    0.8600    0.4729   -6.7186 F   0  0  0  0  0  0  0  0  0  0  0  0
    0.5116    2.6631   -6.7073 F   0  0  0  0  0  0  0  0  0  0  0  0
    1.4220    2.7996   -9.2791 F   0  0  0  0  0  0  0  0  0  0  0  0
    1.6084    0.6354   -9.4368 F   0  0  0  0  0  0  0  0  0  0  0  0
   -0.9494    2.9575   -8.8763 F   0  0  0  0  0  0  0  0  0  0  0  0
   -1.3560    0.8383   -8.3656 F   0  0  0  0  0  0  0  0  0  0  0  0
   -0.5871    0.0505  -11.0164 O   0  0  0  0  0  0  0  0  0  0  0  0
  1  2  2  0
  1  3  1  0
  3  4  1  0
  4  5  1  0
  5  6  1  0
  6  7  1  0
  7  8  1  0
  8  9  1  0
  9 10  1  0
  9 11  1  0
  9 12  1  0
  8 13  1  0
  8 14  1  0
  7 15  1  0
  7 16  1  0
  6 17  1  0
  6 18  1  0
  5 19  1  0
  5 20  1  0
  4 21  1  0
  4 22  1  0
  3 23  1  0
  3 24  1  0
  1 25  1  0
M  END
$$$$
