
     RDKit          3D

  4  3  0  0  0  0  0  0  0  0999 V2000
   -6.8197   -4.4708    5.8618 C   0  0  0  0  0  0  0  0  0  0  0  0
   -6.8401   -3.8320    4.4726 C   0  0  0  0  0  0  0  0  0  0  0  0
   -6.4468   -2.1033    4.7587 Cl  0  0  0  0  0  0  0  0  0  0  0  0
   -6.9845   -6.2191    5.6995 Cl  0  0  0  0  0  0  0  0  0  0  0  0
  1  2  1  0
  2  3  1  0
  1  4  1  0
M  END
$$$$
