
     RDKit          3D

  4  3  0  0  0  0  0  0  0  0999 V2000
   -1.9410   -8.7516   -7.2233 C   0  0  0  0  0  0  0  0  0  0  0  0
   -1.6471   -8.4692   -5.7495 C   0  0  0  0  0  0  0  0  0  0  0  0
   -0.5155   -7.0748   -5.7681 Cl  0  0  0  0  0  0  0  0  0  0  0  0
   -3.1363  -10.0429   -7.3401 Cl  0  0  0  0  0  0  0  0  0  0  0  0
  1  2  1  0
  2  3  1  0
  1  4  1  0
M  END
$$$$
