
     RDKit          3D

  4  3  0  0  0  0  0  0  0  0999 V2000
    2.2934   -6.4329   -4.3168 C   0  0  0  0  0  0  0  0  0  0  0  0
    2.6548   -6.9096   -5.7241 C   0  0  0  0  0  0  0  0  0  0  0  0
    2.2971   -5.5074   -6.7875 Cl  0  0  0  0  0  0  0  0  0  0  0  0
    2.9962   -7.5343   -3.1323 Cl  0  0  0  0  0  0  0  0  0  0  0  0
  1  2  1  0
  2  3  1  0
  1  4  1  0
M  END
$$$$
