
     RDKit          3D

  4  3  0  0  0  0  0  0  0  0999 V2000
   -4.5368   -2.0042    8.5629 C   0  0  0  0  0  0  0  0  0  0  0  0
   -4.9693   -3.3025    7.8807 C   0  0  0  0  0  0  0  0  0  0  0  0
   -5.7059   -2.7797    6.3285 Cl  0  0  0  0  0  0  0  0  0  0  0  0
   -2.9097   -2.2039    9.2132 Cl  0  0  0  0  0  0  0  0  0  0  0  0
  1  2  1  0
  2  3  1  0
  1  4  1  0
M  END
$$$$
