
     RDKit          3D

 29 28  0  0  0  0  0  0  0  0999 V2000
   -5.0257   -2.8053   10.2053 C   0  0  0  0  0  0  0  0  0  0  0  0
   -4.7611   -2.3610   11.6271 C   0  0  0  0  0  0  0  0  0  0  0  0
   -4.6916   -3.4273   12.6393 C   0  0  0  0  0  0  0  0  0  0  0  0
   -4.5661   -2.9390   14.0463 C   0  0  0  0  0  0  0  0  0  0  0  0
   -5.0071   -3.9134   15.0947 C   0  0  0  0  0  0  0  0  0  0  0  0
   -6.3516   -4.1864   15.0402 F   0  0  0  0  0  0  0  0  0  0  0  0
   -4.1944   -4.9889   15.1993 F   0  0  0  0  0  0  0  0  0  0  0  0
   -4.8553   -3.0391   16.7079 S   0  0  0  0  0  0  0  0  0  0  0  0
   -5.8155   -1.9151   16.6505 O   0  0  0  0  0  0  0  0  0  0  0  0
   -3.4263   -2.6173   16.7660 O   0  0  0  0  0  0  0  0  0  0  0  0
   -5.2575   -4.1357   17.8897 O   0  0  0  0  0  0  0  0  0  0  0  0
   -5.3872   -1.8197   14.1999 F   0  0  0  0  0  0  0  0  0  0  0  0
   -3.2748   -2.4816   14.3012 F   0  0  0  0  0  0  0  0  0  0  0  0
   -5.8204   -4.2447   12.6129 F   0  0  0  0  0  0  0  0  0  0  0  0
   -3.5420   -4.2396   12.4683 F   0  0  0  0  0  0  0  0  0  0  0  0
   -3.5670   -1.6202   11.5521 F   0  0  0  0  0  0  0  0  0  0  0  0
   -5.7439   -1.4528   11.9554 F   0  0  0  0  0  0  0  0  0  0  0  0
   -4.9626   -1.7732    9.1519 C   0  0  0  0  0  0  0  0  0  0  0  0
   -5.0845   -2.5511    7.8152 C   0  0  0  0  0  0  0  0  0  0  0  0
   -5.1453   -1.5763    6.6707 C   0  0  0  0  0  0  0  0  0  0  0  0
   -5.0849   -2.2877    5.4772 F   0  0  0  0  0  0  0  0  0  0  0  0
   -6.3776   -0.9204    6.7185 F   0  0  0  0  0  0  0  0  0  0  0  0
   -4.0856   -0.7205    6.7038 F   0  0  0  0  0  0  0  0  0  0  0  0
   -3.9173   -3.2878    7.7451 F   0  0  0  0  0  0  0  0  0  0  0  0
   -6.2034   -3.3196    7.9130 F   0  0  0  0  0  0  0  0  0  0  0  0
   -3.7382   -1.1366    9.0151 F   0  0  0  0  0  0  0  0  0  0  0  0
   -6.0229   -0.8919    9.1761 F   0  0  0  0  0  0  0  0  0  0  0  0
   -6.3327   -3.3003   10.2184 F   0  0  0  0  0  0  0  0  0  0  0  0
   -4.2446   -3.8987    9.8738 F   0  0  0  0  0  0  0  0  0  0  0  0
  1  2  1  0
  2  3  1  0
  3  4  1  0
  4  5  1  0
  5  6  1  0
  5  7  1  0
  5  8  1  0
  8  9  2  0
  8 10  2  0
  8 11  1  0
  4 12  1  0
  4 13  1  0
  3 14  1  0
  3 15  1  0
  2 16  1  0
  2 17  1  0
  1 18  1  0
 18 19  1  0
 19 20  1  0
 20 21  1  0
 20 22  1  0
 20 23  1  0
 19 24  1  0
 19 25  1  0
 18 26  1  0
 18 27  1  0
  1 28  1  0
  1 29  1  0
M  END
$$$$
