
     RDKit          3D

 29 28  0  0  0  0  0  0  0  0999 V2000
   -3.3132   -9.5019   -0.7826 C   0  0  0  0  0  0  0  0  0  0  0  0
   -3.9640   -9.3201    0.5711 C   0  0  0  0  0  0  0  0  0  0  0  0
   -3.0595   -9.3168    1.7322 C   0  0  0  0  0  0  0  0  0  0  0  0
   -3.7298   -9.0404    3.0392 C   0  0  0  0  0  0  0  0  0  0  0  0
   -2.8953   -9.3259    4.2497 C   0  0  0  0  0  0  0  0  0  0  0  0
   -2.6000  -10.6590    4.3941 F   0  0  0  0  0  0  0  0  0  0  0  0
   -1.8535   -8.4759    4.3922 F   0  0  0  0  0  0  0  0  0  0  0  0
   -3.9753   -9.0092    5.7069 S   0  0  0  0  0  0  0  0  0  0  0  0
   -5.2610   -9.6781    5.4102 O   0  0  0  0  0  0  0  0  0  0  0  0
   -4.0651   -7.5227    5.7834 O   0  0  0  0  0  0  0  0  0  0  0  0
   -3.2175   -9.6829    7.0233 O   0  0  0  0  0  0  0  0  0  0  0  0
   -4.8482   -9.8701    3.1457 F   0  0  0  0  0  0  0  0  0  0  0  0
   -4.2342   -7.7420    3.0752 F   0  0  0  0  0  0  0  0  0  0  0  0
   -2.4032  -10.5371    1.8847 F   0  0  0  0  0  0  0  0  0  0  0  0
   -2.0864   -8.2898    1.6369 F   0  0  0  0  0  0  0  0  0  0  0  0
   -4.6898   -8.1198    0.4588 F   0  0  0  0  0  0  0  0  0  0  0  0
   -4.9073  -10.3159    0.7021 F   0  0  0  0  0  0  0  0  0  0  0  0
   -4.1672   -9.9911   -1.8827 C   0  0  0  0  0  0  0  0  0  0  0  0
   -3.1970  -10.2434   -3.0667 C   0  0  0  0  0  0  0  0  0  0  0  0
   -3.9321  -10.9424   -4.1780 C   0  0  0  0  0  0  0  0  0  0  0  0
   -4.0470  -12.2904   -3.8559 F   0  0  0  0  0  0  0  0  0  0  0  0
   -5.2201  -10.4075   -4.2559 F   0  0  0  0  0  0  0  0  0  0  0  0
   -3.2451  -10.8476   -5.3508 F   0  0  0  0  0  0  0  0  0  0  0  0
   -2.8230   -8.9765   -3.4732 F   0  0  0  0  0  0  0  0  0  0  0  0
   -2.1642  -10.9794   -2.5733 F   0  0  0  0  0  0  0  0  0  0  0  0
   -5.0472   -9.0593   -2.4124 F   0  0  0  0  0  0  0  0  0  0  0  0
   -4.7683  -11.2039   -1.6196 F   0  0  0  0  0  0  0  0  0  0  0  0
   -2.3161  -10.4599   -0.5788 F   0  0  0  0  0  0  0  0  0  0  0  0
   -2.6259   -8.3613   -1.1597 F   0  0  0  0  0  0  0  0  0  0  0  0
  1  2  1  0
  2  3  1  0
  3  4  1  0
  4  5  1  0
  5  6  1  0
  5  7  1  0
  5  8  1  0
  8  9  2  0
  8 10  2  0
  8 11  1  0
  4 12  1  0
  4 13  1  0
  3 14  1  0
  3 15  1  0
  2 16  1  0
  2 17  1  0
  1 18  1  0
 18 19  1  0
 19 20  1  0
 20 21  1  0
 20 22  1  0
 20 23  1  0
 19 24  1  0
 19 25  1  0
 18 26  1  0
 18 27  1  0
  1 28  1  0
  1 29  1  0
M  END
$$$$
