
     RDKit          3D

 25 24  0  0  0  0  0  0  0  0999 V2000
   -5.9426   -6.7395    8.5347 C   0  0  0  0  0  0  0  0  0  0  0  0
   -5.3753   -7.7406    7.9909 O   0  0  0  0  0  0  0  0  0  0  0  0
   -6.3621   -5.6262    7.6705 C   0  0  0  0  0  0  0  0  0  0  0  0
   -6.3665   -5.9943    6.2078 C   0  0  0  0  0  0  0  0  0  0  0  0
   -6.5645   -4.6558    5.4403 C   0  0  0  0  0  0  0  0  0  0  0  0
   -5.7596   -4.6517    4.1975 C   0  0  0  0  0  0  0  0  0  0  0  0
   -5.8658   -3.5134    3.2680 C   0  0  0  0  0  0  0  0  0  0  0  0
   -5.2835   -3.8054    1.9193 C   0  0  0  0  0  0  0  0  0  0  0  0
   -4.6285   -2.4795    1.4717 C   0  0  0  0  0  0  0  0  0  0  0  0
   -5.5173   -1.7313    0.7431 F   0  0  0  0  0  0  0  0  0  0  0  0
   -3.4954   -2.7151    0.7278 F   0  0  0  0  0  0  0  0  0  0  0  0
   -4.3275   -1.7802    2.6250 F   0  0  0  0  0  0  0  0  0  0  0  0
   -6.3637   -4.0384    1.0426 F   0  0  0  0  0  0  0  0  0  0  0  0
   -4.4080   -4.8349    1.8657 F   0  0  0  0  0  0  0  0  0  0  0  0
   -7.2128   -3.1788    3.0151 F   0  0  0  0  0  0  0  0  0  0  0  0
   -5.3307   -2.3432    3.8094 F   0  0  0  0  0  0  0  0  0  0  0  0
   -6.0659   -5.8689    3.5436 F   0  0  0  0  0  0  0  0  0  0  0  0
   -4.3890   -4.8024    4.4965 F   0  0  0  0  0  0  0  0  0  0  0  0
   -7.9491   -4.6711    5.2139 F   0  0  0  0  0  0  0  0  0  0  0  0
   -6.2434   -3.6346    6.2836 F   0  0  0  0  0  0  0  0  0  0  0  0
   -7.3724   -6.8605    5.8790 F   0  0  0  0  0  0  0  0  0  0  0  0
   -5.1364   -6.4746    5.8487 F   0  0  0  0  0  0  0  0  0  0  0  0
   -5.4692   -4.5537    7.7804 F   0  0  0  0  0  0  0  0  0  0  0  0
   -7.5983   -5.1370    8.0048 F   0  0  0  0  0  0  0  0  0  0  0  0
   -6.1771   -6.6607    9.8959 O   0  0  0  0  0  0  0  0  0  0  0  0
  1  2  2  0
  1  3  1  0
  3  4  1  0
  4  5  1  0
  5  6  1  0
  6  7  1  0
  7  8  1  0
  8  9  1  0
  9 10  1  0
  9 11  1  0
  9 12  1  0
  8 13  1  0
  8 14  1  0
  7 15  1  0
  7 16  1  0
  6 17  1  0
  6 18  1  0
  5 19  1  0
  5 20  1  0
  4 21  1  0
  4 22  1  0
  3 23  1  0
  3 24  1  0
  1 25  1  0
M  END
$$$$
