
     RDKit          3D

 25 24  0  0  0  0  0  0  0  0999 V2000
    4.2508  -12.2383   11.2503 C   0  0  0  0  0  0  0  0  0  0  0  0
    4.9475  -11.5961   12.0999 O   0  0  0  0  0  0  0  0  0  0  0  0
    4.1008  -11.6679    9.9033 C   0  0  0  0  0  0  0  0  0  0  0  0
    5.2409  -10.7545    9.5277 C   0  0  0  0  0  0  0  0  0  0  0  0
    6.4629  -11.6871    9.2896 C   0  0  0  0  0  0  0  0  0  0  0  0
    7.4206  -11.0517    8.3560 C   0  0  0  0  0  0  0  0  0  0  0  0
    8.7581  -11.6428    8.1749 C   0  0  0  0  0  0  0  0  0  0  0  0
    9.6740  -10.7763    7.3663 C   0  0  0  0  0  0  0  0  0  0  0  0
   10.7370  -11.7421    6.7964 C   0  0  0  0  0  0  0  0  0  0  0  0
   11.4017  -12.3741    7.8158 F   0  0  0  0  0  0  0  0  0  0  0  0
   11.6346  -11.0723    5.9974 F   0  0  0  0  0  0  0  0  0  0  0  0
   10.0515  -12.7010    6.0753 F   0  0  0  0  0  0  0  0  0  0  0  0
   10.3444   -9.9250    8.2693 F   0  0  0  0  0  0  0  0  0  0  0  0
    9.0870  -10.0502    6.3878 F   0  0  0  0  0  0  0  0  0  0  0  0
    9.4181  -11.8119    9.4102 F   0  0  0  0  0  0  0  0  0  0  0  0
    8.6930  -12.9367    7.6551 F   0  0  0  0  0  0  0  0  0  0  0  0
    7.5161   -9.7022    8.7715 F   0  0  0  0  0  0  0  0  0  0  0  0
    6.8528  -10.9355    7.0697 F   0  0  0  0  0  0  0  0  0  0  0  0
    6.9589  -11.8286   10.5945 F   0  0  0  0  0  0  0  0  0  0  0  0
    5.9973  -12.8854    8.8376 F   0  0  0  0  0  0  0  0  0  0  0  0
    5.5435   -9.8489   10.5069 F   0  0  0  0  0  0  0  0  0  0  0  0
    4.9713  -10.1474    8.3313 F   0  0  0  0  0  0  0  0  0  0  0  0
    2.9501  -10.8742    9.8297 F   0  0  0  0  0  0  0  0  0  0  0  0
    3.9706  -12.6300    8.9355 F   0  0  0  0  0  0  0  0  0  0  0  0
    3.6351  -13.4420   11.5442 O   0  0  0  0  0  0  0  0  0  0  0  0
  1  2  2  0
  1  3  1  0
  3  4  1  0
  4  5  1  0
  5  6  1  0
  6  7  1  0
  7  8  1  0
  8  9  1  0
  9 10  1  0
  9 11  1  0
  9 12  1  0
  8 13  1  0
  8 14  1  0
  7 15  1  0
  7 16  1  0
  6 17  1  0
  6 18  1  0
  5 19  1  0
  5 20  1  0
  4 21  1  0
  4 22  1  0
  3 23  1  0
  3 24  1  0
  1 25  1  0
M  END
$$$$
