
     RDKit          3D

 25 24  0  0  0  0  0  0  0  0999 V2000
   -6.8232   -7.3163    8.7752 C   0  0  0  0  0  0  0  0  0  0  0  0
   -7.2411   -6.5828    9.7275 O   0  0  0  0  0  0  0  0  0  0  0  0
   -5.8901   -6.7267    7.8037 C   0  0  0  0  0  0  0  0  0  0  0  0
   -6.5079   -5.6011    7.0123 C   0  0  0  0  0  0  0  0  0  0  0  0
   -5.5618   -5.3748    5.7984 C   0  0  0  0  0  0  0  0  0  0  0  0
   -6.2288   -4.5373    4.7756 C   0  0  0  0  0  0  0  0  0  0  0  0
   -5.6844   -4.4919    3.4072 C   0  0  0  0  0  0  0  0  0  0  0  0
   -6.1422   -3.2918    2.6368 C   0  0  0  0  0  0  0  0  0  0  0  0
   -4.9273   -2.8847    1.7732 C   0  0  0  0  0  0  0  0  0  0  0  0
   -3.9436   -2.3430    2.5604 F   0  0  0  0  0  0  0  0  0  0  0  0
   -5.2938   -1.9860    0.7981 F   0  0  0  0  0  0  0  0  0  0  0  0
   -4.4339   -4.0482    1.2145 F   0  0  0  0  0  0  0  0  0  0  0  0
   -6.3421   -2.2520    3.5687 F   0  0  0  0  0  0  0  0  0  0  0  0
   -7.2521   -3.4635    1.8832 F   0  0  0  0  0  0  0  0  0  0  0  0
   -4.2766   -4.4002    3.4157 F   0  0  0  0  0  0  0  0  0  0  0  0
   -5.9344   -5.6720    2.7046 F   0  0  0  0  0  0  0  0  0  0  0  0
   -6.2986   -3.2392    5.3354 F   0  0  0  0  0  0  0  0  0  0  0  0
   -7.5892   -4.8922    4.6575 F   0  0  0  0  0  0  0  0  0  0  0  0
   -4.4692   -4.7464    6.4150 F   0  0  0  0  0  0  0  0  0  0  0  0
   -5.1871   -6.5954    5.3224 F   0  0  0  0  0  0  0  0  0  0  0  0
   -6.6141   -4.4410    7.7289 F   0  0  0  0  0  0  0  0  0  0  0  0
   -7.7125   -6.0022    6.5018 F   0  0  0  0  0  0  0  0  0  0  0  0
   -5.5015   -7.6783    6.8535 F   0  0  0  0  0  0  0  0  0  0  0  0
   -4.7376   -6.2714    8.3900 F   0  0  0  0  0  0  0  0  0  0  0  0
   -7.2108   -8.6355    8.6214 O   0  0  0  0  0  0  0  0  0  0  0  0
  1  2  2  0
  1  3  1  0
  3  4  1  0
  4  5  1  0
  5  6  1  0
  6  7  1  0
  7  8  1  0
  8  9  1  0
  9 10  1  0
  9 11  1  0
  9 12  1  0
  8 13  1  0
  8 14  1  0
  7 15  1  0
  7 16  1  0
  6 17  1  0
  6 18  1  0
  5 19  1  0
  5 20  1  0
  4 21  1  0
  4 22  1  0
  3 23  1  0
  3 24  1  0
  1 25  1  0
M  END
$$$$
