
     RDKit          3D

 25 24  0  0  0  0  0  0  0  0999 V2000
   -8.8181  -13.3042    0.2687 C   0  0  0  0  0  0  0  0  0  0  0  0
   -7.7336  -12.6461    0.3709 O   0  0  0  0  0  0  0  0  0  0  0  0
   -9.9948  -12.6199   -0.2876 C   0  0  0  0  0  0  0  0  0  0  0  0
   -9.6684  -11.8046   -1.5139 C   0  0  0  0  0  0  0  0  0  0  0  0
   -9.2613  -10.3992   -0.9856 C   0  0  0  0  0  0  0  0  0  0  0  0
   -8.3347   -9.7416   -1.9350 C   0  0  0  0  0  0  0  0  0  0  0  0
   -7.5688   -8.5601   -1.5008 C   0  0  0  0  0  0  0  0  0  0  0  0
   -6.5439   -8.1284   -2.5040 C   0  0  0  0  0  0  0  0  0  0  0  0
   -5.2010   -8.6634   -1.9582 C   0  0  0  0  0  0  0  0  0  0  0  0
   -5.2175  -10.0339   -1.9125 F   0  0  0  0  0  0  0  0  0  0  0  0
   -4.9403   -8.1569   -0.7059 F   0  0  0  0  0  0  0  0  0  0  0  0
   -4.2279   -8.2786   -2.8606 F   0  0  0  0  0  0  0  0  0  0  0  0
   -6.4721   -6.7209   -2.4445 F   0  0  0  0  0  0  0  0  0  0  0  0
   -6.7587   -8.5318   -3.7769 F   0  0  0  0  0  0  0  0  0  0  0  0
   -8.4057   -7.4368   -1.3332 F   0  0  0  0  0  0  0  0  0  0  0  0
   -6.9998   -8.7395   -0.2387 F   0  0  0  0  0  0  0  0  0  0  0  0
   -9.1117   -9.4475   -3.0808 F   0  0  0  0  0  0  0  0  0  0  0  0
   -7.3965  -10.6704   -2.4327 F   0  0  0  0  0  0  0  0  0  0  0  0
  -10.5111   -9.7686   -0.8912 F   0  0  0  0  0  0  0  0  0  0  0  0
   -8.7249  -10.5550    0.2573 F   0  0  0  0  0  0  0  0  0  0  0  0
  -10.7285  -11.6798   -2.3689 F   0  0  0  0  0  0  0  0  0  0  0  0
   -8.5656  -12.3253   -2.1347 F   0  0  0  0  0  0  0  0  0  0  0  0
  -10.5165  -11.7070    0.6365 F   0  0  0  0  0  0  0  0  0  0  0  0
  -11.0122  -13.4863   -0.5932 F   0  0  0  0  0  0  0  0  0  0  0  0
   -8.9300  -14.6271    0.6579 O   0  0  0  0  0  0  0  0  0  0  0  0
  1  2  2  0
  1  3  1  0
  3  4  1  0
  4  5  1  0
  5  6  1  0
  6  7  1  0
  7  8  1  0
  8  9  1  0
  9 10  1  0
  9 11  1  0
  9 12  1  0
  8 13  1  0
  8 14  1  0
  7 15  1  0
  7 16  1  0
  6 17  1  0
  6 18  1  0
  5 19  1  0
  5 20  1  0
  4 21  1  0
  4 22  1  0
  3 23  1  0
  3 24  1  0
  1 25  1  0
M  END
$$$$
