
     RDKit          3D

 25 24  0  0  0  0  0  0  0  0999 V2000
   -9.5037  -14.9496    0.4892 C   0  0  0  0  0  0  0  0  0  0  0  0
  -10.5958  -14.8093   -0.1491 O   0  0  0  0  0  0  0  0  0  0  0  0
   -8.6435  -13.7692    0.6596 C   0  0  0  0  0  0  0  0  0  0  0  0
   -8.9207  -12.6945   -0.3617 C   0  0  0  0  0  0  0  0  0  0  0  0
   -7.7743  -11.6559   -0.1976 C   0  0  0  0  0  0  0  0  0  0  0  0
   -7.8847  -10.6006   -1.2304 C   0  0  0  0  0  0  0  0  0  0  0  0
   -6.7932   -9.6238   -1.3893 C   0  0  0  0  0  0  0  0  0  0  0  0
   -7.1735   -8.4593   -2.2512 C   0  0  0  0  0  0  0  0  0  0  0  0
   -5.8829   -7.6192   -2.3791 C   0  0  0  0  0  0  0  0  0  0  0  0
   -6.1394   -6.4515   -3.0509 F   0  0  0  0  0  0  0  0  0  0  0  0
   -4.8967   -8.3253   -3.0283 F   0  0  0  0  0  0  0  0  0  0  0  0
   -5.4953   -7.2949   -1.0930 F   0  0  0  0  0  0  0  0  0  0  0  0
   -8.0911   -7.6807   -1.5155 F   0  0  0  0  0  0  0  0  0  0  0  0
   -7.6882   -8.7667   -3.4635 F   0  0  0  0  0  0  0  0  0  0  0  0
   -6.4285   -9.0531   -0.1517 F   0  0  0  0  0  0  0  0  0  0  0  0
   -5.6147  -10.2232   -1.8369 F   0  0  0  0  0  0  0  0  0  0  0  0
   -9.1144   -9.9480   -0.9755 F   0  0  0  0  0  0  0  0  0  0  0  0
   -8.1015  -11.1742   -2.5011 F   0  0  0  0  0  0  0  0  0  0  0  0
   -8.0071  -11.1934    1.1064 F   0  0  0  0  0  0  0  0  0  0  0  0
   -6.5884  -12.3252   -0.2479 F   0  0  0  0  0  0  0  0  0  0  0  0
  -10.1256  -12.0761   -0.1715 F   0  0  0  0  0  0  0  0  0  0  0  0
   -8.8026  -13.2138   -1.6223 F   0  0  0  0  0  0  0  0  0  0  0  0
   -7.2976  -14.1107    0.4826 F   0  0  0  0  0  0  0  0  0  0  0  0
   -8.7429  -13.2217    1.9125 F   0  0  0  0  0  0  0  0  0  0  0  0
   -9.0997  -16.1601    1.0237 O   0  0  0  0  0  0  0  0  0  0  0  0
  1  2  2  0
  1  3  1  0
  3  4  1  0
  4  5  1  0
  5  6  1  0
  6  7  1  0
  7  8  1  0
  8  9  1  0
  9 10  1  0
  9 11  1  0
  9 12  1  0
  8 13  1  0
  8 14  1  0
  7 15  1  0
  7 16  1  0
  6 17  1  0
  6 18  1  0
  5 19  1  0
  5 20  1  0
  4 21  1  0
  4 22  1  0
  3 23  1  0
  3 24  1  0
  1 25  1  0
M  END
$$$$
