
     RDKit          3D

 25 24  0  0  0  0  0  0  0  0999 V2000
    0.5098    5.0747  -13.7941 C   0  0  0  0  0  0  0  0  0  0  0  0
    0.9502    4.2783  -14.6837 O   0  0  0  0  0  0  0  0  0  0  0  0
    0.2329    4.5339  -12.4550 C   0  0  0  0  0  0  0  0  0  0  0  0
    0.6628    3.0956  -12.3077 C   0  0  0  0  0  0  0  0  0  0  0  0
    0.4131    2.7353  -10.8152 C   0  0  0  0  0  0  0  0  0  0  0  0
    1.2345    1.5670  -10.4240 C   0  0  0  0  0  0  0  0  0  0  0  0
    1.3767    1.2249   -8.9979 C   0  0  0  0  0  0  0  0  0  0  0  0
    2.4582    0.2203   -8.7441 C   0  0  0  0  0  0  0  0  0  0  0  0
    3.0284    0.5897   -7.3563 C   0  0  0  0  0  0  0  0  0  0  0  0
    2.0128    0.7252   -6.4448 F   0  0  0  0  0  0  0  0  0  0  0  0
    3.7604    1.7530   -7.4171 F   0  0  0  0  0  0  0  0  0  0  0  0
    3.8182   -0.4725   -6.9597 F   0  0  0  0  0  0  0  0  0  0  0  0
    3.4831    0.4684   -9.6809 F   0  0  0  0  0  0  0  0  0  0  0  0
    2.0813   -1.0775   -8.7968 F   0  0  0  0  0  0  0  0  0  0  0  0
    1.7433    2.3515   -8.2319 F   0  0  0  0  0  0  0  0  0  0  0  0
    0.1658    0.8209   -8.4328 F   0  0  0  0  0  0  0  0  0  0  0  0
    2.4998    1.7758  -11.0226 F   0  0  0  0  0  0  0  0  0  0  0  0
    0.7774    0.4019  -11.0752 F   0  0  0  0  0  0  0  0  0  0  0  0
    0.7904    3.9270  -10.1779 F   0  0  0  0  0  0  0  0  0  0  0  0
   -0.9228    2.5235  -10.6503 F   0  0  0  0  0  0  0  0  0  0  0  0
    1.9826    2.9002  -12.6084 F   0  0  0  0  0  0  0  0  0  0  0  0
   -0.1582    2.2899  -13.0489 F   0  0  0  0  0  0  0  0  0  0  0  0
   -1.1429    4.5379  -12.1969 F   0  0  0  0  0  0  0  0  0  0  0  0
    0.8165    5.2719  -11.4580 F   0  0  0  0  0  0  0  0  0  0  0  0
    0.2840    6.4177  -14.0378 O   0  0  0  0  0  0  0  0  0  0  0  0
  1  2  2  0
  1  3  1  0
  3  4  1  0
  4  5  1  0
  5  6  1  0
  6  7  1  0
  7  8  1  0
  8  9  1  0
  9 10  1  0
  9 11  1  0
  9 12  1  0
  8 13  1  0
  8 14  1  0
  7 15  1  0
  7 16  1  0
  6 17  1  0
  6 18  1  0
  5 19  1  0
  5 20  1  0
  4 21  1  0
  4 22  1  0
  3 23  1  0
  3 24  1  0
  1 25  1  0
M  END
$$$$
