
     RDKit          3D

 29 28  0  0  0  0  0  0  0  0999 V2000
   10.8607    8.8160   -2.6925 C   0  0  0  0  0  0  0  0  0  0  0  0
   12.2336    8.6455   -3.2039 C   0  0  0  0  0  0  0  0  0  0  0  0
   13.1711    7.7137   -2.5597 C   0  0  0  0  0  0  0  0  0  0  0  0
   14.6094    7.7647   -2.9662 C   0  0  0  0  0  0  0  0  0  0  0  0
   15.3274    6.5059   -2.3996 C   0  0  0  0  0  0  0  0  0  0  0  0
   14.5389    5.4076   -2.5612 F   0  0  0  0  0  0  0  0  0  0  0  0
   15.5710    6.7325   -1.0800 F   0  0  0  0  0  0  0  0  0  0  0  0
   16.8418    6.3812   -3.3214 S   0  0  0  0  0  0  0  0  0  0  0  0
   16.5856    6.1200   -4.7706 O   0  0  0  0  0  0  0  0  0  0  0  0
   17.6800    5.2999   -2.6765 O   0  0  0  0  0  0  0  0  0  0  0  0
   17.6884    7.8353   -3.0815 O   0  0  0  0  0  0  0  0  0  0  0  0
   15.3239    8.8262   -2.4348 F   0  0  0  0  0  0  0  0  0  0  0  0
   14.7933    7.7114   -4.3273 F   0  0  0  0  0  0  0  0  0  0  0  0
   12.7681    6.3911   -2.8602 F   0  0  0  0  0  0  0  0  0  0  0  0
   13.1128    7.7468   -1.1673 F   0  0  0  0  0  0  0  0  0  0  0  0
   12.1393    8.2711   -4.5622 F   0  0  0  0  0  0  0  0  0  0  0  0
   12.9136    9.8788   -3.2809 F   0  0  0  0  0  0  0  0  0  0  0  0
    9.9418    9.6761   -3.4961 C   0  0  0  0  0  0  0  0  0  0  0  0
    8.5229    9.7772   -3.1587 C   0  0  0  0  0  0  0  0  0  0  0  0
    7.7129   10.8530   -3.7858 C   0  0  0  0  0  0  0  0  0  0  0  0
    6.3966   10.6525   -3.3330 F   0  0  0  0  0  0  0  0  0  0  0  0
    7.6104   10.8386   -5.1490 F   0  0  0  0  0  0  0  0  0  0  0  0
    8.0349   12.1159   -3.3021 F   0  0  0  0  0  0  0  0  0  0  0  0
    7.8005    8.5941   -3.1964 F   0  0  0  0  0  0  0  0  0  0  0  0
    8.4993   10.1020   -1.7709 F   0  0  0  0  0  0  0  0  0  0  0  0
   10.4766   10.9740   -3.4085 F   0  0  0  0  0  0  0  0  0  0  0  0
   10.0932    9.3540   -4.8479 F   0  0  0  0  0  0  0  0  0  0  0  0
   10.9273    9.2832   -1.3711 F   0  0  0  0  0  0  0  0  0  0  0  0
   10.1949    7.5979   -2.5548 F   0  0  0  0  0  0  0  0  0  0  0  0
  1  2  1  0
  2  3  1  0
  3  4  1  0
  4  5  1  0
  5  6  1  0
  5  7  1  0
  5  8  1  0
  8  9  2  0
  8 10  2  0
  8 11  1  0
  4 12  1  0
  4 13  1  0
  3 14  1  0
  3 15  1  0
  2 16  1  0
  2 17  1  0
  1 18  1  0
 18 19  1  0
 19 20  1  0
 20 21  1  0
 20 22  1  0
 20 23  1  0
 19 24  1  0
 19 25  1  0
 18 26  1  0
 18 27  1  0
  1 28  1  0
  1 29  1  0
M  END
$$$$
