
     RDKit          3D

 29 28  0  0  0  0  0  0  0  0999 V2000
   12.7973    7.5929   -2.6951 C   0  0  0  0  0  0  0  0  0  0  0  0
   12.2049    8.9431   -2.7313 C   0  0  0  0  0  0  0  0  0  0  0  0
   12.2734    9.7676   -3.9470 C   0  0  0  0  0  0  0  0  0  0  0  0
   11.8069   11.1861   -3.8659 C   0  0  0  0  0  0  0  0  0  0  0  0
   11.8762   11.8107   -5.2893 C   0  0  0  0  0  0  0  0  0  0  0  0
   11.2164   11.0180   -6.1784 F   0  0  0  0  0  0  0  0  0  0  0  0
   13.1904   11.9191   -5.6255 F   0  0  0  0  0  0  0  0  0  0  0  0
   11.1182   13.4104   -5.1317 S   0  0  0  0  0  0  0  0  0  0  0  0
   11.1355   14.1589   -6.4253 O   0  0  0  0  0  0  0  0  0  0  0  0
   11.8378   14.1485   -4.0249 O   0  0  0  0  0  0  0  0  0  0  0  0
    9.5343   13.1545   -4.5709 O   0  0  0  0  0  0  0  0  0  0  0  0
   12.6067   12.0154   -3.0963 F   0  0  0  0  0  0  0  0  0  0  0  0
   10.4947   11.3069   -3.4749 F   0  0  0  0  0  0  0  0  0  0  0  0
   11.4463    9.1820   -4.9344 F   0  0  0  0  0  0  0  0  0  0  0  0
   13.5302    9.7584   -4.5498 F   0  0  0  0  0  0  0  0  0  0  0  0
   10.8411    8.8198   -2.3862 F   0  0  0  0  0  0  0  0  0  0  0  0
   12.7036    9.7546   -1.6911 F   0  0  0  0  0  0  0  0  0  0  0  0
   14.2633    7.5047   -2.4253 C   0  0  0  0  0  0  0  0  0  0  0  0
   15.0172    6.2992   -2.7655 C   0  0  0  0  0  0  0  0  0  0  0  0
   16.4994    6.3315   -2.6717 C   0  0  0  0  0  0  0  0  0  0  0  0
   16.7896    6.8004   -1.3780 F   0  0  0  0  0  0  0  0  0  0  0  0
   17.1555    7.1961   -3.5029 F   0  0  0  0  0  0  0  0  0  0  0  0
   17.0643    5.0614   -2.6921 F   0  0  0  0  0  0  0  0  0  0  0  0
   14.5597    5.1152   -2.2073 F   0  0  0  0  0  0  0  0  0  0  0  0
   14.7710    6.0937   -4.1545 F   0  0  0  0  0  0  0  0  0  0  0  0
   14.8385    8.5648   -3.1492 F   0  0  0  0  0  0  0  0  0  0  0  0
   14.4965    7.8582   -1.0932 F   0  0  0  0  0  0  0  0  0  0  0  0
   12.4861    6.9325   -3.8935 F   0  0  0  0  0  0  0  0  0  0  0  0
   12.1985    6.7806   -1.7320 F   0  0  0  0  0  0  0  0  0  0  0  0
  1  2  1  0
  2  3  1  0
  3  4  1  0
  4  5  1  0
  5  6  1  0
  5  7  1  0
  5  8  1  0
  8  9  2  0
  8 10  2  0
  8 11  1  0
  4 12  1  0
  4 13  1  0
  3 14  1  0
  3 15  1  0
  2 16  1  0
  2 17  1  0
  1 18  1  0
 18 19  1  0
 19 20  1  0
 20 21  1  0
 20 22  1  0
 20 23  1  0
 19 24  1  0
 19 25  1  0
 18 26  1  0
 18 27  1  0
  1 28  1  0
  1 29  1  0
M  END
$$$$
