
     RDKit          3D

 29 28  0  0  0  0  0  0  0  0999 V2000
   -1.4067   -6.8003   -6.6390 C   0  0  0  0  0  0  0  0  0  0  0  0
   -0.9427   -8.0843   -7.2589 C   0  0  0  0  0  0  0  0  0  0  0  0
   -1.8658   -9.2093   -7.4217 C   0  0  0  0  0  0  0  0  0  0  0  0
   -1.3416  -10.4112   -8.1659 C   0  0  0  0  0  0  0  0  0  0  0  0
   -2.1969  -11.5804   -8.3652 C   0  0  0  0  0  0  0  0  0  0  0  0
   -3.3640  -11.0937   -9.0378 F   0  0  0  0  0  0  0  0  0  0  0  0
   -2.7448  -12.1389   -7.2176 F   0  0  0  0  0  0  0  0  0  0  0  0
   -1.5778  -12.8434   -9.4052 S   0  0  0  0  0  0  0  0  0  0  0  0
   -2.7050  -13.7204   -9.9157 O   0  0  0  0  0  0  0  0  0  0  0  0
   -0.9785  -12.1943  -10.6465 O   0  0  0  0  0  0  0  0  0  0  0  0
   -0.3930  -13.7884   -8.7300 O   0  0  0  0  0  0  0  0  0  0  0  0
   -0.8453   -9.9177   -9.3901 F   0  0  0  0  0  0  0  0  0  0  0  0
   -0.1698  -10.8549   -7.5166 F   0  0  0  0  0  0  0  0  0  0  0  0
   -3.0402   -8.8337   -8.0645 F   0  0  0  0  0  0  0  0  0  0  0  0
   -2.1859   -9.6718   -6.1311 F   0  0  0  0  0  0  0  0  0  0  0  0
   -0.4321   -7.6937   -8.5295 F   0  0  0  0  0  0  0  0  0  0  0  0
    0.2247   -8.4372   -6.5707 F   0  0  0  0  0  0  0  0  0  0  0  0
   -0.3289   -5.9188   -6.1860 C   0  0  0  0  0  0  0  0  0  0  0  0
   -0.7083   -4.7824   -5.2663 C   0  0  0  0  0  0  0  0  0  0  0  0
    0.3191   -4.2075   -4.3903 C   0  0  0  0  0  0  0  0  0  0  0  0
   -0.1076   -2.9632   -3.8431 F   0  0  0  0  0  0  0  0  0  0  0  0
    1.5590   -4.0175   -4.9054 F   0  0  0  0  0  0  0  0  0  0  0  0
    0.4755   -4.9690   -3.2111 F   0  0  0  0  0  0  0  0  0  0  0  0
   -1.1970   -3.7755   -6.1082 F   0  0  0  0  0  0  0  0  0  0  0  0
   -1.7804   -5.2227   -4.5149 F   0  0  0  0  0  0  0  0  0  0  0  0
    0.1835   -5.2066   -7.3153 F   0  0  0  0  0  0  0  0  0  0  0  0
    0.7296   -6.6525   -5.7251 F   0  0  0  0  0  0  0  0  0  0  0  0
   -2.1152   -7.2047   -5.4718 F   0  0  0  0  0  0  0  0  0  0  0  0
   -2.3440   -6.1528   -7.4487 F   0  0  0  0  0  0  0  0  0  0  0  0
  1  2  1  0
  2  3  1  0
  3  4  1  0
  4  5  1  0
  5  6  1  0
  5  7  1  0
  5  8  1  0
  8  9  2  0
  8 10  2  0
  8 11  1  0
  4 12  1  0
  4 13  1  0
  3 14  1  0
  3 15  1  0
  2 16  1  0
  2 17  1  0
  1 18  1  0
 18 19  1  0
 19 20  1  0
 20 21  1  0
 20 22  1  0
 20 23  1  0
 19 24  1  0
 19 25  1  0
 18 26  1  0
 18 27  1  0
  1 28  1  0
  1 29  1  0
M  END
$$$$
