
     RDKit          3D

 29 28  0  0  0  0  0  0  0  0999 V2000
   -1.4728   -7.0950   -6.4948 C   0  0  0  0  0  0  0  0  0  0  0  0
   -1.0470   -8.4686   -6.9191 C   0  0  0  0  0  0  0  0  0  0  0  0
   -1.9362   -9.3091   -7.7235 C   0  0  0  0  0  0  0  0  0  0  0  0
   -1.3547  -10.5962   -8.2516 C   0  0  0  0  0  0  0  0  0  0  0  0
   -2.0171  -11.3054   -9.3454 C   0  0  0  0  0  0  0  0  0  0  0  0
   -2.0184  -10.3941  -10.4504 F   0  0  0  0  0  0  0  0  0  0  0  0
   -3.3742  -11.5511   -9.1806 F   0  0  0  0  0  0  0  0  0  0  0  0
   -1.2214  -12.7402   -9.9523 S   0  0  0  0  0  0  0  0  0  0  0  0
   -0.2217  -12.3832  -11.0357 O   0  0  0  0  0  0  0  0  0  0  0  0
   -0.3946  -13.3455   -8.8248 O   0  0  0  0  0  0  0  0  0  0  0  0
   -2.2418  -13.9284  -10.4995 O   0  0  0  0  0  0  0  0  0  0  0  0
   -0.0085  -10.3109   -8.5592 F   0  0  0  0  0  0  0  0  0  0  0  0
   -1.2380  -11.5012   -7.1750 F   0  0  0  0  0  0  0  0  0  0  0  0
   -2.4439   -8.6292   -8.8250 F   0  0  0  0  0  0  0  0  0  0  0  0
   -3.0085   -9.6890   -6.8943 F   0  0  0  0  0  0  0  0  0  0  0  0
    0.1749   -8.2547   -7.6182 F   0  0  0  0  0  0  0  0  0  0  0  0
   -0.6082   -9.1066   -5.7523 F   0  0  0  0  0  0  0  0  0  0  0  0
   -0.4937   -6.3810   -5.6729 C   0  0  0  0  0  0  0  0  0  0  0  0
   -0.9207   -5.0558   -5.0873 C   0  0  0  0  0  0  0  0  0  0  0  0
   -0.0013   -4.3507   -4.1869 C   0  0  0  0  0  0  0  0  0  0  0  0
    0.2973   -5.1363   -3.0366 F   0  0  0  0  0  0  0  0  0  0  0  0
   -0.3602   -3.1177   -3.7511 F   0  0  0  0  0  0  0  0  0  0  0  0
    1.2848   -4.2273   -4.7573 F   0  0  0  0  0  0  0  0  0  0  0  0
   -1.1881   -4.2355   -6.1905 F   0  0  0  0  0  0  0  0  0  0  0  0
   -2.1296   -5.2735   -4.4559 F   0  0  0  0  0  0  0  0  0  0  0  0
    0.5970   -5.9808   -6.5067 F   0  0  0  0  0  0  0  0  0  0  0  0
    0.0623   -7.2225   -4.7490 F   0  0  0  0  0  0  0  0  0  0  0  0
   -2.6107   -7.3154   -5.6673 F   0  0  0  0  0  0  0  0  0  0  0  0
   -1.9313   -6.3451   -7.5814 F   0  0  0  0  0  0  0  0  0  0  0  0
  1  2  1  0
  2  3  1  0
  3  4  1  0
  4  5  1  0
  5  6  1  0
  5  7  1  0
  5  8  1  0
  8  9  2  0
  8 10  2  0
  8 11  1  0
  4 12  1  0
  4 13  1  0
  3 14  1  0
  3 15  1  0
  2 16  1  0
  2 17  1  0
  1 18  1  0
 18 19  1  0
 19 20  1  0
 20 21  1  0
 20 22  1  0
 20 23  1  0
 19 24  1  0
 19 25  1  0
 18 26  1  0
 18 27  1  0
  1 28  1  0
  1 29  1  0
M  END
$$$$
