
     RDKit          3D

 29 28  0  0  0  0  0  0  0  0999 V2000
   -0.4124   -4.6750   -9.1915 C   0  0  0  0  0  0  0  0  0  0  0  0
   -0.9787   -4.4976  -10.5684 C   0  0  0  0  0  0  0  0  0  0  0  0
   -0.9600   -5.6020  -11.5298 C   0  0  0  0  0  0  0  0  0  0  0  0
   -1.4101   -5.2839  -12.9332 C   0  0  0  0  0  0  0  0  0  0  0  0
   -1.5233   -6.3512  -13.9264 C   0  0  0  0  0  0  0  0  0  0  0  0
   -2.6402   -7.1462  -13.5119 F   0  0  0  0  0  0  0  0  0  0  0  0
   -0.4978   -7.2880  -13.9354 F   0  0  0  0  0  0  0  0  0  0  0  0
   -1.9035   -5.8684  -15.5642 S   0  0  0  0  0  0  0  0  0  0  0  0
   -2.9603   -4.7805  -15.5725 O   0  0  0  0  0  0  0  0  0  0  0  0
   -0.6636   -5.2303  -16.1781 O   0  0  0  0  0  0  0  0  0  0  0  0
   -2.3630   -7.1052  -16.5700 O   0  0  0  0  0  0  0  0  0  0  0  0
   -2.6204   -4.5735  -12.7959 F   0  0  0  0  0  0  0  0  0  0  0  0
   -0.5402   -4.3076  -13.4642 F   0  0  0  0  0  0  0  0  0  0  0  0
   -1.7328   -6.6775  -11.1063 F   0  0  0  0  0  0  0  0  0  0  0  0
    0.3774   -6.0258  -11.6469 F   0  0  0  0  0  0  0  0  0  0  0  0
   -2.3211   -4.0799  -10.3423 F   0  0  0  0  0  0  0  0  0  0  0  0
   -0.3906   -3.3310  -11.0726 F   0  0  0  0  0  0  0  0  0  0  0  0
   -0.7770   -3.6209   -8.2429 C   0  0  0  0  0  0  0  0  0  0  0  0
   -0.3887   -3.8290   -6.7982 C   0  0  0  0  0  0  0  0  0  0  0  0
    1.0296   -4.0040   -6.4646 C   0  0  0  0  0  0  0  0  0  0  0  0
    1.8159   -2.9328   -6.9782 F   0  0  0  0  0  0  0  0  0  0  0  0
    1.6314   -5.1607   -6.8370 F   0  0  0  0  0  0  0  0  0  0  0  0
    1.2555   -3.8501   -5.0790 F   0  0  0  0  0  0  0  0  0  0  0  0
   -0.8750   -2.7036   -6.1211 F   0  0  0  0  0  0  0  0  0  0  0  0
   -1.1199   -4.9089   -6.3436 F   0  0  0  0  0  0  0  0  0  0  0  0
   -2.2028   -3.5679   -8.1453 F   0  0  0  0  0  0  0  0  0  0  0  0
   -0.4133   -2.3939   -8.7257 F   0  0  0  0  0  0  0  0  0  0  0  0
    0.9973   -4.5853   -9.3727 F   0  0  0  0  0  0  0  0  0  0  0  0
   -0.6528   -5.9624   -8.7034 F   0  0  0  0  0  0  0  0  0  0  0  0
  1  2  1  0
  2  3  1  0
  3  4  1  0
  4  5  1  0
  5  6  1  0
  5  7  1  0
  5  8  1  0
  8  9  2  0
  8 10  2  0
  8 11  1  0
  4 12  1  0
  4 13  1  0
  3 14  1  0
  3 15  1  0
  2 16  1  0
  2 17  1  0
  1 18  1  0
 18 19  1  0
 19 20  1  0
 20 21  1  0
 20 22  1  0
 20 23  1  0
 19 24  1  0
 19 25  1  0
 18 26  1  0
 18 27  1  0
  1 28  1  0
  1 29  1  0
M  END
$$$$
