
     RDKit          3D

 29 28  0  0  0  0  0  0  0  0999 V2000
    0.2594   -4.1360   -8.0466 C   0  0  0  0  0  0  0  0  0  0  0  0
   -0.5429   -3.5562   -9.1728 C   0  0  0  0  0  0  0  0  0  0  0  0
    0.0869   -3.2600  -10.4611 C   0  0  0  0  0  0  0  0  0  0  0  0
   -0.8257   -2.7998  -11.5695 C   0  0  0  0  0  0  0  0  0  0  0  0
   -0.2686   -2.1523  -12.7564 C   0  0  0  0  0  0  0  0  0  0  0  0
    0.8962   -2.9121  -13.0988 F   0  0  0  0  0  0  0  0  0  0  0  0
    0.2669   -0.8850  -12.5659 F   0  0  0  0  0  0  0  0  0  0  0  0
   -1.2537   -2.1716  -14.2018 S   0  0  0  0  0  0  0  0  0  0  0  0
   -1.6630   -3.5887  -14.5548 O   0  0  0  0  0  0  0  0  0  0  0  0
   -2.5559   -1.4377  -13.9067 O   0  0  0  0  0  0  0  0  0  0  0  0
   -0.5710   -1.4385  -15.5244 O   0  0  0  0  0  0  0  0  0  0  0  0
   -1.6098   -3.9209  -11.9109 F   0  0  0  0  0  0  0  0  0  0  0  0
   -1.7779   -1.9162  -11.0179 F   0  0  0  0  0  0  0  0  0  0  0  0
    0.7909   -4.3495  -10.9620 F   0  0  0  0  0  0  0  0  0  0  0  0
    0.9884   -2.2002  -10.2468 F   0  0  0  0  0  0  0  0  0  0  0  0
   -1.6049   -4.4863   -9.3594 F   0  0  0  0  0  0  0  0  0  0  0  0
   -1.2131   -2.4522   -8.6314 F   0  0  0  0  0  0  0  0  0  0  0  0
   -0.4544   -4.2200   -6.7709 C   0  0  0  0  0  0  0  0  0  0  0  0
    0.3828   -4.2895   -5.5157 C   0  0  0  0  0  0  0  0  0  0  0  0
   -0.2910   -4.4684   -4.2244 C   0  0  0  0  0  0  0  0  0  0  0  0
   -0.7770   -3.2277   -3.7205 F   0  0  0  0  0  0  0  0  0  0  0  0
    0.4022   -5.0663   -3.2240 F   0  0  0  0  0  0  0  0  0  0  0  0
   -1.5016   -5.1812   -4.3695 F   0  0  0  0  0  0  0  0  0  0  0  0
    1.2604   -5.3621   -5.7181 F   0  0  0  0  0  0  0  0  0  0  0  0
    1.1568   -3.1459   -5.4927 F   0  0  0  0  0  0  0  0  0  0  0  0
   -1.1460   -5.4706   -6.7164 F   0  0  0  0  0  0  0  0  0  0  0  0
   -1.4389   -3.2725   -6.7084 F   0  0  0  0  0  0  0  0  0  0  0  0
    1.3231   -3.2088   -7.8538 F   0  0  0  0  0  0  0  0  0  0  0  0
    0.8653   -5.3391   -8.4190 F   0  0  0  0  0  0  0  0  0  0  0  0
  1  2  1  0
  2  3  1  0
  3  4  1  0
  4  5  1  0
  5  6  1  0
  5  7  1  0
  5  8  1  0
  8  9  2  0
  8 10  2  0
  8 11  1  0
  4 12  1  0
  4 13  1  0
  3 14  1  0
  3 15  1  0
  2 16  1  0
  2 17  1  0
  1 18  1  0
 18 19  1  0
 19 20  1  0
 20 21  1  0
 20 22  1  0
 20 23  1  0
 19 24  1  0
 19 25  1  0
 18 26  1  0
 18 27  1  0
  1 28  1  0
  1 29  1  0
M  END
$$$$
