
     RDKit          3D

 29 28  0  0  0  0  0  0  0  0999 V2000
   -1.1829   -4.5466   -8.2530 C   0  0  0  0  0  0  0  0  0  0  0  0
   -0.7342   -4.8275   -9.6559 C   0  0  0  0  0  0  0  0  0  0  0  0
   -1.6137   -4.5406  -10.7910 C   0  0  0  0  0  0  0  0  0  0  0  0
   -1.1515   -5.0226  -12.1428 C   0  0  0  0  0  0  0  0  0  0  0  0
   -2.0544   -4.9606  -13.2913 C   0  0  0  0  0  0  0  0  0  0  0  0
   -2.4632   -3.5912  -13.3864 F   0  0  0  0  0  0  0  0  0  0  0  0
   -3.2736   -5.6097  -13.1452 F   0  0  0  0  0  0  0  0  0  0  0  0
   -1.3669   -5.3298  -14.8568 S   0  0  0  0  0  0  0  0  0  0  0  0
   -0.0938   -4.5377  -15.0854 O   0  0  0  0  0  0  0  0  0  0  0  0
   -0.9380   -6.7919  -14.8616 O   0  0  0  0  0  0  0  0  0  0  0  0
   -2.3965   -5.1206  -16.1408 O   0  0  0  0  0  0  0  0  0  0  0  0
    0.0588   -4.3454  -12.3980 F   0  0  0  0  0  0  0  0  0  0  0  0
   -0.7308   -6.3633  -12.0122 F   0  0  0  0  0  0  0  0  0  0  0  0
   -1.8654   -3.1798  -10.9269 F   0  0  0  0  0  0  0  0  0  0  0  0
   -2.8321   -5.2027  -10.5480 F   0  0  0  0  0  0  0  0  0  0  0  0
    0.4775   -4.0915   -9.7886 F   0  0  0  0  0  0  0  0  0  0  0  0
   -0.2737   -6.1499   -9.6488 F   0  0  0  0  0  0  0  0  0  0  0  0
   -0.0967   -4.4348   -7.2776 C   0  0  0  0  0  0  0  0  0  0  0  0
   -0.4284   -4.7473   -5.8376 C   0  0  0  0  0  0  0  0  0  0  0  0
    0.5077   -4.3276   -4.7883 C   0  0  0  0  0  0  0  0  0  0  0  0
    0.3185   -5.0841   -3.5961 F   0  0  0  0  0  0  0  0  0  0  0  0
    0.5221   -3.0179   -4.4370 F   0  0  0  0  0  0  0  0  0  0  0  0
    1.8362   -4.6815   -5.1117 F   0  0  0  0  0  0  0  0  0  0  0  0
   -1.6679   -4.1379   -5.6052 F   0  0  0  0  0  0  0  0  0  0  0  0
   -0.6401   -6.1103   -5.7672 F   0  0  0  0  0  0  0  0  0  0  0  0
    0.2933   -3.0621   -7.1840 F   0  0  0  0  0  0  0  0  0  0  0  0
    1.0196   -5.0862   -7.7253 F   0  0  0  0  0  0  0  0  0  0  0  0
   -1.9395   -5.6956   -7.8851 F   0  0  0  0  0  0  0  0  0  0  0  0
   -2.0756   -3.4722   -8.2089 F   0  0  0  0  0  0  0  0  0  0  0  0
  1  2  1  0
  2  3  1  0
  3  4  1  0
  4  5  1  0
  5  6  1  0
  5  7  1  0
  5  8  1  0
  8  9  2  0
  8 10  2  0
  8 11  1  0
  4 12  1  0
  4 13  1  0
  3 14  1  0
  3 15  1  0
  2 16  1  0
  2 17  1  0
  1 18  1  0
 18 19  1  0
 19 20  1  0
 20 21  1  0
 20 22  1  0
 20 23  1  0
 19 24  1  0
 19 25  1  0
 18 26  1  0
 18 27  1  0
  1 28  1  0
  1 29  1  0
M  END
$$$$
