
     RDKit          3D

 19 19  0  0  0  0  0  0  0  0999 V2000
   25.3946  -59.5714    3.7218 C   0  0  0  0  0  0  0  0  0  0  0  0
   24.4193  -59.4878    4.9043 C   0  0  0  0  0  0  0  0  0  0  0  0
   25.0704  -58.5969    5.9235 C   0  0  0  0  0  0  0  0  0  0  0  0
   24.3361  -58.4156    7.1331 N   0  0  0  0  0  0  0  0  0  0  0  0
   23.0832  -57.7423    7.0093 C   0  0  0  0  0  0  0  0  0  0  0  0
   22.1989  -58.5725    6.0708 C   0  0  0  0  0  0  0  0  0  0  0  0
   20.7744  -58.5527    6.6330 C   0  0  0  0  0  0  0  0  0  0  0  0
   25.3361  -57.7209    8.3247 S   0  0  0  0  0  0  0  0  0  0  0  0
   24.5655  -57.5871    9.6049 O   0  0  0  0  0  0  0  0  0  0  0  0
   26.4810  -58.6529    8.6212 O   0  0  0  0  0  0  0  0  0  0  0  0
   25.9367  -56.1686    7.8053 C   0  0  0  0  0  0  0  0  0  0  0  0
   25.2994  -54.9772    8.0696 C   0  0  0  0  0  0  0  0  0  0  0  0
   25.8465  -53.7709    7.6148 C   0  0  0  0  0  0  0  0  0  0  0  0
   27.0438  -53.7969    6.8921 C   0  0  0  0  0  0  0  0  0  0  0  0
   27.6827  -54.9933    6.6275 C   0  0  0  0  0  0  0  0  0  0  0  0
   27.1324  -56.1761    7.0818 C   0  0  0  0  0  0  0  0  0  0  0  0
   27.6553  -52.5599    6.3951 C   0  0  0  0  0  0  0  0  0  0  0  0
   28.7084  -52.5780    5.7011 O   0  0  0  0  0  0  0  0  0  0  0  0
   27.0753  -51.3286    6.6853 O   0  0  0  0  0  0  0  0  0  0  0  0
  1  2  1  0
  2  3  1  0
  3  4  1  0
  4  5  1  0
  5  6  1  0
  6  7  1  0
  4  8  1  0
  8  9  2  0
  8 10  2  0
  8 11  1  0
 11 12  1  0
 12 13  2  0
 13 14  1  0
 14 15  2  0
 15 16  1  0
 14 17  1  0
 17 18  2  0
 17 19  1  0
 16 11  2  0
M  END
$$$$
