
     RDKit          3D

 19 19  0  0  0  0  0  0  0  0999 V2000
   40.1978  -60.2592   37.6719 C   0  0  0  0  0  0  0  0  0  0  0  0
   39.8868  -60.4609   39.1616 C   0  0  0  0  0  0  0  0  0  0  0  0
   40.4313  -61.8129   39.5249 C   0  0  0  0  0  0  0  0  0  0  0  0
   40.0380  -62.3051   40.8049 N   0  0  0  0  0  0  0  0  0  0  0  0
   40.2645  -61.4284   41.9087 C   0  0  0  0  0  0  0  0  0  0  0  0
   39.2893  -60.2521   41.7773 C   0  0  0  0  0  0  0  0  0  0  0  0
   39.0075  -59.7201   43.1855 C   0  0  0  0  0  0  0  0  0  0  0  0
   40.6908  -63.8580   41.0592 S   0  0  0  0  0  0  0  0  0  0  0  0
   41.8568  -64.0646   40.1381 O   0  0  0  0  0  0  0  0  0  0  0  0
   41.2421  -63.9452   42.4577 O   0  0  0  0  0  0  0  0  0  0  0  0
   39.4832  -65.0898   40.8056 C   0  0  0  0  0  0  0  0  0  0  0  0
   38.6174  -65.5217   41.7851 C   0  0  0  0  0  0  0  0  0  0  0  0
   37.6757  -66.5189   41.5017 C   0  0  0  0  0  0  0  0  0  0  0  0
   37.6300  -67.0650   40.2148 C   0  0  0  0  0  0  0  0  0  0  0  0
   38.4994  -66.6308   39.2324 C   0  0  0  0  0  0  0  0  0  0  0  0
   39.4235  -65.6466   39.5251 C   0  0  0  0  0  0  0  0  0  0  0  0
   36.6616  -68.1113   39.8701 C   0  0  0  0  0  0  0  0  0  0  0  0
   35.8072  -68.5189   40.7036 O   0  0  0  0  0  0  0  0  0  0  0  0
   36.6699  -68.6793   38.5997 O   0  0  0  0  0  0  0  0  0  0  0  0
  1  2  1  0
  2  3  1  0
  3  4  1  0
  4  5  1  0
  5  6  1  0
  6  7  1  0
  4  8  1  0
  8  9  2  0
  8 10  2  0
  8 11  1  0
 11 12  1  0
 12 13  2  0
 13 14  1  0
 14 15  2  0
 15 16  1  0
 14 17  1  0
 17 18  2  0
 17 19  1  0
 16 11  2  0
M  END
$$$$
