
     RDKit          3D

 19 19  0  0  0  0  0  0  0  0999 V2000
   19.4166  -41.0132   42.9672 C   0  0  0  0  0  0  0  0  0  0  0  0
   19.4236  -39.4782   42.9527 C   0  0  0  0  0  0  0  0  0  0  0  0
   20.8642  -39.0659   42.8476 C   0  0  0  0  0  0  0  0  0  0  0  0
   21.5020  -38.7564   44.0857 N   0  0  0  0  0  0  0  0  0  0  0  0
   20.7800  -37.8907   44.9619 C   0  0  0  0  0  0  0  0  0  0  0  0
   20.7732  -38.5358   46.3531 C   0  0  0  0  0  0  0  0  0  0  0  0
   19.8379  -37.7133   47.2444 C   0  0  0  0  0  0  0  0  0  0  0  0
   23.0946  -38.2209   43.8043 S   0  0  0  0  0  0  0  0  0  0  0  0
   23.7531  -39.1228   42.8026 O   0  0  0  0  0  0  0  0  0  0  0  0
   23.0579  -36.8533   43.1754 O   0  0  0  0  0  0  0  0  0  0  0  0
   24.0091  -38.1814   45.2884 C   0  0  0  0  0  0  0  0  0  0  0  0
   24.7803  -39.2301   45.7368 C   0  0  0  0  0  0  0  0  0  0  0  0
   25.4841  -39.1203   46.9426 C   0  0  0  0  0  0  0  0  0  0  0  0
   25.3909  -37.9346   47.6788 C   0  0  0  0  0  0  0  0  0  0  0  0
   24.6167  -36.8827   47.2278 C   0  0  0  0  0  0  0  0  0  0  0  0
   23.9274  -37.0039   46.0367 C   0  0  0  0  0  0  0  0  0  0  0  0
   26.1094  -37.7723   48.9472 C   0  0  0  0  0  0  0  0  0  0  0  0
   26.0889  -36.6822   49.5813 O   0  0  0  0  0  0  0  0  0  0  0  0
   26.8357  -38.8336   49.4790 O   0  0  0  0  0  0  0  0  0  0  0  0
  1  2  1  0
  2  3  1  0
  3  4  1  0
  4  5  1  0
  5  6  1  0
  6  7  1  0
  4  8  1  0
  8  9  2  0
  8 10  2  0
  8 11  1  0
 11 12  1  0
 12 13  2  0
 13 14  1  0
 14 15  2  0
 15 16  1  0
 14 17  1  0
 17 18  2  0
 17 19  1  0
 16 11  2  0
M  END
$$$$
