
     RDKit          3D

 19 19  0  0  0  0  0  0  0  0999 V2000
   -1.6569  -25.3144   -2.6131 C   0  0  0  0  0  0  0  0  0  0  0  0
   -0.3473  -25.7264   -3.2999 C   0  0  0  0  0  0  0  0  0  0  0  0
   -0.6437  -25.7797   -4.7715 C   0  0  0  0  0  0  0  0  0  0  0  0
   -1.0833  -27.0461   -5.2598 N   0  0  0  0  0  0  0  0  0  0  0  0
   -0.0936  -28.0737   -5.3132 C   0  0  0  0  0  0  0  0  0  0  0  0
    0.5625  -28.1611   -3.9298 C   0  0  0  0  0  0  0  0  0  0  0  0
    1.5436  -29.3369   -3.9521 C   0  0  0  0  0  0  0  0  0  0  0  0
   -1.9010  -26.8489   -6.7412 S   0  0  0  0  0  0  0  0  0  0  0  0
   -2.9060  -25.7426   -6.6115 O   0  0  0  0  0  0  0  0  0  0  0  0
   -0.9230  -26.4040   -7.7962 O   0  0  0  0  0  0  0  0  0  0  0  0
   -2.6805  -28.3320   -7.2239 C   0  0  0  0  0  0  0  0  0  0  0  0
   -3.9648  -28.6712   -6.8618 C   0  0  0  0  0  0  0  0  0  0  0  0
   -4.5190  -29.8843   -7.2894 C   0  0  0  0  0  0  0  0  0  0  0  0
   -3.7505  -30.7398   -8.0855 C   0  0  0  0  0  0  0  0  0  0  0  0
   -2.4616  -30.3984   -8.4484 C   0  0  0  0  0  0  0  0  0  0  0  0
   -1.9268  -29.1989   -8.0200 C   0  0  0  0  0  0  0  0  0  0  0  0
   -4.2871  -32.0206   -8.5577 C   0  0  0  0  0  0  0  0  0  0  0  0
   -3.6372  -32.7552   -9.3507 O   0  0  0  0  0  0  0  0  0  0  0  0
   -5.5399  -32.4521   -8.1322 O   0  0  0  0  0  0  0  0  0  0  0  0
  1  2  1  0
  2  3  1  0
  3  4  1  0
  4  5  1  0
  5  6  1  0
  6  7  1  0
  4  8  1  0
  8  9  2  0
  8 10  2  0
  8 11  1  0
 11 12  1  0
 12 13  2  0
 13 14  1  0
 14 15  2  0
 15 16  1  0
 14 17  1  0
 17 18  2  0
 17 19  1  0
 16 11  2  0
M  END
$$$$
