
     RDKit          3D

 19 19  0  0  0  0  0  0  0  0999 V2000
   36.5157  -70.0620   26.8360 C   0  0  0  0  0  0  0  0  0  0  0  0
   37.1013  -69.2628   28.0086 C   0  0  0  0  0  0  0  0  0  0  0  0
   36.1073  -69.3727   29.1295 C   0  0  0  0  0  0  0  0  0  0  0  0
   34.9641  -68.5267   29.0162 N   0  0  0  0  0  0  0  0  0  0  0  0
   35.2068  -67.1262   29.1502 C   0  0  0  0  0  0  0  0  0  0  0  0
   35.4702  -66.5627   27.7484 C   0  0  0  0  0  0  0  0  0  0  0  0
   36.2182  -65.2363   27.9116 C   0  0  0  0  0  0  0  0  0  0  0  0
   33.7258  -69.0770   30.0487 S   0  0  0  0  0  0  0  0  0  0  0  0
   32.4819  -68.2744   29.8057 O   0  0  0  0  0  0  0  0  0  0  0  0
   33.3801  -70.5004   29.6995 O   0  0  0  0  0  0  0  0  0  0  0  0
   34.2123  -68.9637   31.7193 C   0  0  0  0  0  0  0  0  0  0  0  0
   34.0491  -67.8316   32.4857 C   0  0  0  0  0  0  0  0  0  0  0  0
   34.4691  -67.8202   33.8217 C   0  0  0  0  0  0  0  0  0  0  0  0
   35.0534  -68.9711   34.3607 C   0  0  0  0  0  0  0  0  0  0  0  0
   35.2167  -70.1068   33.5905 C   0  0  0  0  0  0  0  0  0  0  0  0
   34.7981  -70.1048   32.2741 C   0  0  0  0  0  0  0  0  0  0  0  0
   35.5088  -69.0075   35.7544 C   0  0  0  0  0  0  0  0  0  0  0  0
   35.3885  -68.0072   36.5133 O   0  0  0  0  0  0  0  0  0  0  0  0
   36.0893  -70.1627   36.2694 O   0  0  0  0  0  0  0  0  0  0  0  0
  1  2  1  0
  2  3  1  0
  3  4  1  0
  4  5  1  0
  5  6  1  0
  6  7  1  0
  4  8  1  0
  8  9  2  0
  8 10  2  0
  8 11  1  0
 11 12  1  0
 12 13  2  0
 13 14  1  0
 14 15  2  0
 15 16  1  0
 14 17  1  0
 17 18  2  0
 17 19  1  0
 16 11  2  0
M  END
$$$$
