
     RDKit          3D

  4  3  0  0  0  0  0  0  0  0999 V2000
    4.3928    5.3078    2.6323 C   0  0  0  0  0  0  0  0  0  0  0  0
    5.1303    4.9724    1.3404 C   0  0  0  0  0  0  0  0  0  0  0  0
    5.4540    3.2468    1.2038 Cl  0  0  0  0  0  0  0  0  0  0  0  0
    3.8660    7.0036    2.6369 Cl  0  0  0  0  0  0  0  0  0  0  0  0
  1  2  1  0
  2  3  1  0
  1  4  1  0
M  END
$$$$
