
     RDKit          3D

  4  3  0  0  0  0  0  0  0  0999 V2000
  -15.0875    0.3480    3.1392 C   0  0  0  0  0  0  0  0  0  0  0  0
  -13.5961    0.2663    3.4468 C   0  0  0  0  0  0  0  0  0  0  0  0
  -12.9196    1.8492    3.8185 Cl  0  0  0  0  0  0  0  0  0  0  0  0
  -15.6990   -1.2143    2.5574 Cl  0  0  0  0  0  0  0  0  0  0  0  0
  1  2  1  0
  2  3  1  0
  1  4  1  0
M  END
$$$$
