
     RDKit          3D

  4  3  0  0  0  0  0  0  0  0999 V2000
    1.2331    3.7930   -2.9761 C   0  0  0  0  0  0  0  0  0  0  0  0
    1.0189    3.5276   -1.4897 C   0  0  0  0  0  0  0  0  0  0  0  0
    0.5465    1.8583   -1.1870 Cl  0  0  0  0  0  0  0  0  0  0  0  0
    0.1812    5.1074   -3.5411 Cl  0  0  0  0  0  0  0  0  0  0  0  0
  1  2  1  0
  2  3  1  0
  1  4  1  0
M  END
$$$$
