
     RDKit          3D

 29 28  0  0  0  0  0  0  0  0999 V2000
    1.3556    6.6734  -11.5126 C   0  0  0  0  0  0  0  0  0  0  0  0
    1.3415    7.2553  -12.8899 C   0  0  0  0  0  0  0  0  0  0  0  0
    0.6899    6.2423  -13.8775 C   0  0  0  0  0  0  0  0  0  0  0  0
   -0.0328    6.9952  -14.9361 C   0  0  0  0  0  0  0  0  0  0  0  0
   -0.9264    6.2400  -15.8367 C   0  0  0  0  0  0  0  0  0  0  0  0
   -1.7713    5.3994  -15.1192 F   0  0  0  0  0  0  0  0  0  0  0  0
   -0.1028    5.3680  -16.5742 F   0  0  0  0  0  0  0  0  0  0  0  0
   -1.8666    7.1219  -17.0077 S   0  0  0  0  0  0  0  0  0  0  0  0
   -2.7325    6.1895  -17.8360 O   0  0  0  0  0  0  0  0  0  0  0  0
   -1.1105    7.9880  -17.9410 O   0  0  0  0  0  0  0  0  0  0  0  0
   -2.9755    8.0635  -16.1019 O   0  0  0  0  0  0  0  0  0  0  0  0
   -0.7218    8.0872  -14.4138 F   0  0  0  0  0  0  0  0  0  0  0  0
    0.9559    7.5768  -15.7517 F   0  0  0  0  0  0  0  0  0  0  0  0
   -0.1968    5.4702  -13.1817 F   0  0  0  0  0  0  0  0  0  0  0  0
    1.6438    5.4460  -14.4446 F   0  0  0  0  0  0  0  0  0  0  0  0
    0.5419    8.3841  -13.0147 F   0  0  0  0  0  0  0  0  0  0  0  0
    2.5885    7.5805  -13.3481 F   0  0  0  0  0  0  0  0  0  0  0  0
    1.6934    7.5849  -10.4014 C   0  0  0  0  0  0  0  0  0  0  0  0
    1.9817    6.9946   -9.0674 C   0  0  0  0  0  0  0  0  0  0  0  0
    0.6316    7.0713   -8.3118 C   0  0  0  0  0  0  0  0  0  0  0  0
    0.9352    7.6394   -7.0894 F   0  0  0  0  0  0  0  0  0  0  0  0
   -0.1821    7.9575   -8.9738 F   0  0  0  0  0  0  0  0  0  0  0  0
    0.1191    5.8126   -8.1996 F   0  0  0  0  0  0  0  0  0  0  0  0
    2.8824    7.6989   -8.3068 F   0  0  0  0  0  0  0  0  0  0  0  0
    2.2996    5.6276   -9.1261 F   0  0  0  0  0  0  0  0  0  0  0  0
    2.8502    8.2849  -10.7845 F   0  0  0  0  0  0  0  0  0  0  0  0
    0.6748    8.5158  -10.2577 F   0  0  0  0  0  0  0  0  0  0  0  0
    0.1839    5.9582  -11.2488 F   0  0  0  0  0  0  0  0  0  0  0  0
    2.3549    5.6826  -11.5187 F   0  0  0  0  0  0  0  0  0  0  0  0
  1  2  1  0
  2  3  1  0
  3  4  1  0
  4  5  1  0
  5  6  1  0
  5  7  1  0
  5  8  1  0
  8  9  2  0
  8 10  2  0
  8 11  1  0
  4 12  1  0
  4 13  1  0
  3 14  1  0
  3 15  1  0
  2 16  1  0
  2 17  1  0
  1 18  1  0
 18 19  1  0
 19 20  1  0
 20 21  1  0
 20 22  1  0
 20 23  1  0
 19 24  1  0
 19 25  1  0
 18 26  1  0
 18 27  1  0
  1 28  1  0
  1 29  1  0
M  END
$$$$
