
     RDKit          3D

 29 28  0  0  0  0  0  0  0  0999 V2000
    2.2417    6.7147   -8.3219 C   0  0  0  0  0  0  0  0  0  0  0  0
    1.1036    6.8836   -9.2770 C   0  0  0  0  0  0  0  0  0  0  0  0
    1.6470    6.9104  -10.7365 C   0  0  0  0  0  0  0  0  0  0  0  0
    0.5524    6.5298  -11.6674 C   0  0  0  0  0  0  0  0  0  0  0  0
    0.6366    6.9985  -13.0650 C   0  0  0  0  0  0  0  0  0  0  0  0
    1.6898    6.3881  -13.7383 F   0  0  0  0  0  0  0  0  0  0  0  0
    0.9948    8.3589  -13.0070 F   0  0  0  0  0  0  0  0  0  0  0  0
   -0.7922    6.9173  -14.0574 S   0  0  0  0  0  0  0  0  0  0  0  0
   -1.8558    7.8873  -13.5748 O   0  0  0  0  0  0  0  0  0  0  0  0
   -1.4226    5.5844  -14.1954 O   0  0  0  0  0  0  0  0  0  0  0  0
   -0.3249    7.5070  -15.5971 O   0  0  0  0  0  0  0  0  0  0  0  0
    0.3190    5.1567  -11.6558 F   0  0  0  0  0  0  0  0  0  0  0  0
   -0.6286    7.0788  -11.1335 F   0  0  0  0  0  0  0  0  0  0  0  0
    2.6646    6.0042  -10.8352 F   0  0  0  0  0  0  0  0  0  0  0  0
    2.1108    8.1559  -11.0514 F   0  0  0  0  0  0  0  0  0  0  0  0
    0.2145    5.8167   -9.2855 F   0  0  0  0  0  0  0  0  0  0  0  0
    0.3795    8.0223   -9.0532 F   0  0  0  0  0  0  0  0  0  0  0  0
    1.9809    7.0295   -6.9033 C   0  0  0  0  0  0  0  0  0  0  0  0
    3.0736    6.8087   -5.9191 C   0  0  0  0  0  0  0  0  0  0  0  0
    2.3572    6.7867   -4.5459 C   0  0  0  0  0  0  0  0  0  0  0  0
    3.1935    6.0656   -3.7154 F   0  0  0  0  0  0  0  0  0  0  0  0
    2.3198    8.0703   -4.0595 F   0  0  0  0  0  0  0  0  0  0  0  0
    1.1324    6.2071   -4.6989 F   0  0  0  0  0  0  0  0  0  0  0  0
    3.9994    7.8206   -5.8476 F   0  0  0  0  0  0  0  0  0  0  0  0
    3.6816    5.5486   -6.0434 F   0  0  0  0  0  0  0  0  0  0  0  0
    1.6598    8.3962   -6.8405 F   0  0  0  0  0  0  0  0  0  0  0  0
    0.8637    6.3221   -6.4836 F   0  0  0  0  0  0  0  0  0  0  0  0
    2.8462    5.4624   -8.4649 F   0  0  0  0  0  0  0  0  0  0  0  0
    3.2391    7.6144   -8.7417 F   0  0  0  0  0  0  0  0  0  0  0  0
  1  2  1  0
  2  3  1  0
  3  4  1  0
  4  5  1  0
  5  6  1  0
  5  7  1  0
  5  8  1  0
  8  9  2  0
  8 10  2  0
  8 11  1  0
  4 12  1  0
  4 13  1  0
  3 14  1  0
  3 15  1  0
  2 16  1  0
  2 17  1  0
  1 18  1  0
 18 19  1  0
 19 20  1  0
 20 21  1  0
 20 22  1  0
 20 23  1  0
 19 24  1  0
 19 25  1  0
 18 26  1  0
 18 27  1  0
  1 28  1  0
  1 29  1  0
M  END
$$$$
