
     RDKit          3D

 29 28  0  0  0  0  0  0  0  0999 V2000
   11.1776   -8.1184    4.6154 C   0  0  0  0  0  0  0  0  0  0  0  0
   10.5432   -7.1685    3.6503 C   0  0  0  0  0  0  0  0  0  0  0  0
   11.4922   -6.9488    2.4348 C   0  0  0  0  0  0  0  0  0  0  0  0
   11.1804   -5.6371    1.8087 C   0  0  0  0  0  0  0  0  0  0  0  0
   12.0200   -5.1912    0.6789 C   0  0  0  0  0  0  0  0  0  0  0  0
   11.9845   -6.1073   -0.3673 F   0  0  0  0  0  0  0  0  0  0  0  0
   13.3517   -5.2267    1.1352 F   0  0  0  0  0  0  0  0  0  0  0  0
   11.7717   -3.5909    0.0383 S   0  0  0  0  0  0  0  0  0  0  0  0
   11.7895   -2.5462    1.1398 O   0  0  0  0  0  0  0  0  0  0  0  0
   10.5425   -3.3860   -0.7618 O   0  0  0  0  0  0  0  0  0  0  0  0
   13.1549   -3.2498   -0.9141 O   0  0  0  0  0  0  0  0  0  0  0  0
    9.8380   -5.5426    1.4496 F   0  0  0  0  0  0  0  0  0  0  0  0
   11.3292   -4.6709    2.8213 F   0  0  0  0  0  0  0  0  0  0  0  0
   11.2739   -7.9488    1.5301 F   0  0  0  0  0  0  0  0  0  0  0  0
   12.7974   -6.9716    2.8367 F   0  0  0  0  0  0  0  0  0  0  0  0
    9.3809   -7.6545    3.0658 F   0  0  0  0  0  0  0  0  0  0  0  0
   10.2485   -5.9545    4.2071 F   0  0  0  0  0  0  0  0  0  0  0  0
   10.5067   -8.3010    5.9178 C   0  0  0  0  0  0  0  0  0  0  0  0
   11.2397   -9.0181    6.9947 C   0  0  0  0  0  0  0  0  0  0  0  0
   10.3093   -8.9156    8.2289 C   0  0  0  0  0  0  0  0  0  0  0  0
   11.0365   -9.4537    9.2733 F   0  0  0  0  0  0  0  0  0  0  0  0
   10.1205   -7.5860    8.5160 F   0  0  0  0  0  0  0  0  0  0  0  0
    9.1608   -9.6042    7.9715 F   0  0  0  0  0  0  0  0  0  0  0  0
   12.4287   -8.4406    7.3671 F   0  0  0  0  0  0  0  0  0  0  0  0
   11.3793  -10.3935    6.7455 F   0  0  0  0  0  0  0  0  0  0  0  0
   10.2248   -7.0175    6.4157 F   0  0  0  0  0  0  0  0  0  0  0  0
    9.2930   -8.9412    5.7127 F   0  0  0  0  0  0  0  0  0  0  0  0
   11.4626   -9.3459    4.0106 F   0  0  0  0  0  0  0  0  0  0  0  0
   12.4486   -7.5882    4.9051 F   0  0  0  0  0  0  0  0  0  0  0  0
  1  2  1  0
  2  3  1  0
  3  4  1  0
  4  5  1  0
  5  6  1  0
  5  7  1  0
  5  8  1  0
  8  9  2  0
  8 10  2  0
  8 11  1  0
  4 12  1  0
  4 13  1  0
  3 14  1  0
  3 15  1  0
  2 16  1  0
  2 17  1  0
  1 18  1  0
 18 19  1  0
 19 20  1  0
 20 21  1  0
 20 22  1  0
 20 23  1  0
 19 24  1  0
 19 25  1  0
 18 26  1  0
 18 27  1  0
  1 28  1  0
  1 29  1  0
M  END
$$$$
