
     RDKit          3D

 29 28  0  0  0  0  0  0  0  0999 V2000
    2.7262    8.1925  -14.2953 C   0  0  0  0  0  0  0  0  0  0  0  0
    1.8749    7.1185  -13.6970 C   0  0  0  0  0  0  0  0  0  0  0  0
    2.0533    7.1130  -12.1496 C   0  0  0  0  0  0  0  0  0  0  0  0
    0.7845    6.6650  -11.5180 C   0  0  0  0  0  0  0  0  0  0  0  0
    0.6143    6.8902  -10.0687 C   0  0  0  0  0  0  0  0  0  0  0  0
    0.8360    8.2227   -9.7366 F   0  0  0  0  0  0  0  0  0  0  0  0
    1.6565    6.1890   -9.4325 F   0  0  0  0  0  0  0  0  0  0  0  0
   -0.8600    6.3560   -9.3110 S   0  0  0  0  0  0  0  0  0  0  0  0
   -2.0803    6.8861  -10.0422 O   0  0  0  0  0  0  0  0  0  0  0  0
   -1.0158    6.6791   -7.8742 O   0  0  0  0  0  0  0  0  0  0  0  0
   -0.9132    4.6584   -9.5392 O   0  0  0  0  0  0  0  0  0  0  0  0
   -0.3300    7.1559  -12.1939 F   0  0  0  0  0  0  0  0  0  0  0  0
    0.7150    5.2732  -11.7157 F   0  0  0  0  0  0  0  0  0  0  0  0
    2.3399    8.3855  -11.7434 F   0  0  0  0  0  0  0  0  0  0  0  0
    3.0711    6.2768  -11.7884 F   0  0  0  0  0  0  0  0  0  0  0  0
    0.5115    7.3253  -13.8617 F   0  0  0  0  0  0  0  0  0  0  0  0
    2.1645    5.8722  -14.1804 F   0  0  0  0  0  0  0  0  0  0  0  0
    2.4058    8.6142  -15.6735 C   0  0  0  0  0  0  0  0  0  0  0  0
    3.4167    9.4078  -16.4214 C   0  0  0  0  0  0  0  0  0  0  0  0
    2.6991    9.8066  -17.7350 C   0  0  0  0  0  0  0  0  0  0  0  0
    3.3757   10.9220  -18.1903 F   0  0  0  0  0  0  0  0  0  0  0  0
    2.9046    8.8100  -18.6571 F   0  0  0  0  0  0  0  0  0  0  0  0
    1.3872   10.0570  -17.4601 F   0  0  0  0  0  0  0  0  0  0  0  0
    4.5365    8.7078  -16.7985 F   0  0  0  0  0  0  0  0  0  0  0  0
    3.7429   10.6200  -15.7912 F   0  0  0  0  0  0  0  0  0  0  0  0
    2.1890    7.4430  -16.4191 F   0  0  0  0  0  0  0  0  0  0  0  0
    1.2137    9.3237  -15.6611 F   0  0  0  0  0  0  0  0  0  0  0  0
    2.8396    9.2907  -13.4379 F   0  0  0  0  0  0  0  0  0  0  0  0
    4.0329    7.6723  -14.3430 F   0  0  0  0  0  0  0  0  0  0  0  0
  1  2  1  0
  2  3  1  0
  3  4  1  0
  4  5  1  0
  5  6  1  0
  5  7  1  0
  5  8  1  0
  8  9  2  0
  8 10  2  0
  8 11  1  0
  4 12  1  0
  4 13  1  0
  3 14  1  0
  3 15  1  0
  2 16  1  0
  2 17  1  0
  1 18  1  0
 18 19  1  0
 19 20  1  0
 20 21  1  0
 20 22  1  0
 20 23  1  0
 19 24  1  0
 19 25  1  0
 18 26  1  0
 18 27  1  0
  1 28  1  0
  1 29  1  0
M  END
$$$$
