
     RDKit          3D

 29 28  0  0  0  0  0  0  0  0999 V2000
    1.9295    6.8126  -11.6971 C   0  0  0  0  0  0  0  0  0  0  0  0
    1.1066    6.7774  -12.9451 C   0  0  0  0  0  0  0  0  0  0  0  0
    1.7566    7.6933  -14.0245 C   0  0  0  0  0  0  0  0  0  0  0  0
    0.8899    7.7081  -15.2321 C   0  0  0  0  0  0  0  0  0  0  0  0
    1.2087    8.6738  -16.3024 C   0  0  0  0  0  0  0  0  0  0  0  0
    2.4107    8.3556  -16.9263 F   0  0  0  0  0  0  0  0  0  0  0  0
    1.4557    9.9053  -15.6659 F   0  0  0  0  0  0  0  0  0  0  0  0
    0.0059    8.9928  -17.5208 S   0  0  0  0  0  0  0  0  0  0  0  0
   -1.2921    9.4792  -16.9015 O   0  0  0  0  0  0  0  0  0  0  0  0
   -0.3184    7.8732  -18.4342 O   0  0  0  0  0  0  0  0  0  0  0  0
    0.5935   10.3297  -18.4177 O   0  0  0  0  0  0  0  0  0  0  0  0
    0.7533    6.4369  -15.7850 F   0  0  0  0  0  0  0  0  0  0  0  0
   -0.4064    8.0237  -14.7838 F   0  0  0  0  0  0  0  0  0  0  0  0
    2.9799    7.1783  -14.3480 F   0  0  0  0  0  0  0  0  0  0  0  0
    1.9065    8.9639  -13.5463 F   0  0  0  0  0  0  0  0  0  0  0  0
    1.0715    5.5326  -13.5599 F   0  0  0  0  0  0  0  0  0  0  0  0
   -0.1867    7.1761  -12.7468 F   0  0  0  0  0  0  0  0  0  0  0  0
    1.2065    6.7268  -10.4128 C   0  0  0  0  0  0  0  0  0  0  0  0
    1.9782    6.9101   -9.1550 C   0  0  0  0  0  0  0  0  0  0  0  0
    0.9252    7.3822   -8.1217 C   0  0  0  0  0  0  0  0  0  0  0  0
   -0.2974    7.1492   -8.7219 F   0  0  0  0  0  0  0  0  0  0  0  0
    0.9971    6.5568   -7.0266 F   0  0  0  0  0  0  0  0  0  0  0  0
    1.1393    8.7007   -7.8476 F   0  0  0  0  0  0  0  0  0  0  0  0
    2.9324    7.8967   -9.2018 F   0  0  0  0  0  0  0  0  0  0  0  0
    2.4914    5.7072   -8.6424 F   0  0  0  0  0  0  0  0  0  0  0  0
    0.2261    7.7336  -10.4278 F   0  0  0  0  0  0  0  0  0  0  0  0
    0.5471    5.5079  -10.3484 F   0  0  0  0  0  0  0  0  0  0  0  0
    2.9818    5.8942  -11.7538 F   0  0  0  0  0  0  0  0  0  0  0  0
    2.5787    8.0613  -11.6939 F   0  0  0  0  0  0  0  0  0  0  0  0
  1  2  1  0
  2  3  1  0
  3  4  1  0
  4  5  1  0
  5  6  1  0
  5  7  1  0
  5  8  1  0
  8  9  2  0
  8 10  2  0
  8 11  1  0
  4 12  1  0
  4 13  1  0
  3 14  1  0
  3 15  1  0
  2 16  1  0
  2 17  1  0
  1 18  1  0
 18 19  1  0
 19 20  1  0
 20 21  1  0
 20 22  1  0
 20 23  1  0
 19 24  1  0
 19 25  1  0
 18 26  1  0
 18 27  1  0
  1 28  1  0
  1 29  1  0
M  END
$$$$
