
     RDKit          3D

 29 28  0  0  0  0  0  0  0  0999 V2000
    1.2178    6.3736  -11.4249 C   0  0  0  0  0  0  0  0  0  0  0  0
    1.4737    6.9356  -12.7868 C   0  0  0  0  0  0  0  0  0  0  0  0
    0.3718    6.4413  -13.7705 C   0  0  0  0  0  0  0  0  0  0  0  0
    0.3081    7.3682  -14.9309 C   0  0  0  0  0  0  0  0  0  0  0  0
   -0.9046    7.3427  -15.7727 C   0  0  0  0  0  0  0  0  0  0  0  0
   -2.0309    7.7128  -15.0449 F   0  0  0  0  0  0  0  0  0  0  0  0
   -1.1276    5.9933  -16.1076 F   0  0  0  0  0  0  0  0  0  0  0  0
   -0.8911    8.2179  -17.2783 S   0  0  0  0  0  0  0  0  0  0  0  0
   -0.1762    7.4356  -18.3655 O   0  0  0  0  0  0  0  0  0  0  0  0
   -0.3103    9.5797  -17.2425 O   0  0  0  0  0  0  0  0  0  0  0  0
   -2.5249    8.2906  -17.7904 O   0  0  0  0  0  0  0  0  0  0  0  0
    0.5816    8.6819  -14.5577 F   0  0  0  0  0  0  0  0  0  0  0  0
    1.3835    7.0235  -15.7709 F   0  0  0  0  0  0  0  0  0  0  0  0
   -0.8270    6.4487  -13.1153 F   0  0  0  0  0  0  0  0  0  0  0  0
    0.6494    5.1759  -14.2031 F   0  0  0  0  0  0  0  0  0  0  0  0
    1.3656    8.3186  -12.8531 F   0  0  0  0  0  0  0  0  0  0  0  0
    2.6998    6.5932  -13.2872 F   0  0  0  0  0  0  0  0  0  0  0  0
    1.4249    7.2767  -10.2755 C   0  0  0  0  0  0  0  0  0  0  0  0
    1.3659    6.7005   -8.9059 C   0  0  0  0  0  0  0  0  0  0  0  0
    1.5030    7.9243   -7.9664 C   0  0  0  0  0  0  0  0  0  0  0  0
    2.1104    7.4358   -6.8255 F   0  0  0  0  0  0  0  0  0  0  0  0
    2.3819    8.8103   -8.5394 F   0  0  0  0  0  0  0  0  0  0  0  0
    0.2619    8.4370   -7.7290 F   0  0  0  0  0  0  0  0  0  0  0  0
    2.4043    5.8600   -8.5879 F   0  0  0  0  0  0  0  0  0  0  0  0
    0.1181    6.1326   -8.5997 F   0  0  0  0  0  0  0  0  0  0  0  0
    2.7081    7.8317  -10.4181 F   0  0  0  0  0  0  0  0  0  0  0  0
    0.5123    8.3188  -10.3521 F   0  0  0  0  0  0  0  0  0  0  0  0
   -0.0268    5.7404  -11.3598 F   0  0  0  0  0  0  0  0  0  0  0  0
    2.1354    5.3194  -11.2600 F   0  0  0  0  0  0  0  0  0  0  0  0
  1  2  1  0
  2  3  1  0
  3  4  1  0
  4  5  1  0
  5  6  1  0
  5  7  1  0
  5  8  1  0
  8  9  2  0
  8 10  2  0
  8 11  1  0
  4 12  1  0
  4 13  1  0
  3 14  1  0
  3 15  1  0
  2 16  1  0
  2 17  1  0
  1 18  1  0
 18 19  1  0
 19 20  1  0
 20 21  1  0
 20 22  1  0
 20 23  1  0
 19 24  1  0
 19 25  1  0
 18 26  1  0
 18 27  1  0
  1 28  1  0
  1 29  1  0
M  END
$$$$
