
     RDKit          3D

 29 28  0  0  0  0  0  0  0  0999 V2000
    1.6302    6.8922  -12.1598 C   0  0  0  0  0  0  0  0  0  0  0  0
    2.7189    7.5135  -12.9751 C   0  0  0  0  0  0  0  0  0  0  0  0
    2.1788    7.8495  -14.3969 C   0  0  0  0  0  0  0  0  0  0  0  0
    3.3023    8.3393  -15.2380 C   0  0  0  0  0  0  0  0  0  0  0  0
    3.0134    8.6961  -16.6413 C   0  0  0  0  0  0  0  0  0  0  0  0
    1.9308    9.5655  -16.7274 F   0  0  0  0  0  0  0  0  0  0  0  0
    2.5700    7.5159  -17.2682 F   0  0  0  0  0  0  0  0  0  0  0  0
    4.3109    9.3089  -17.6282 S   0  0  0  0  0  0  0  0  0  0  0  0
    5.3783    8.2532  -17.8549 O   0  0  0  0  0  0  0  0  0  0  0  0
    4.9824   10.5367  -17.1440 O   0  0  0  0  0  0  0  0  0  0  0  0
    3.6294    9.5850  -19.1761 O   0  0  0  0  0  0  0  0  0  0  0  0
    3.9847    9.3890  -14.6275 F   0  0  0  0  0  0  0  0  0  0  0  0
    4.2484    7.2980  -15.2783 F   0  0  0  0  0  0  0  0  0  0  0  0
    1.2358    8.8311  -14.2799 F   0  0  0  0  0  0  0  0  0  0  0  0
    1.6193    6.7431  -14.9699 F   0  0  0  0  0  0  0  0  0  0  0  0
    3.1468    8.7447  -12.4956 F   0  0  0  0  0  0  0  0  0  0  0  0
    3.8211    6.7130  -13.0980 F   0  0  0  0  0  0  0  0  0  0  0  0
    1.6794    7.1049  -10.6996 C   0  0  0  0  0  0  0  0  0  0  0  0
    0.6381    6.4590   -9.8572 C   0  0  0  0  0  0  0  0  0  0  0  0
    0.6277    7.2916   -8.5510 C   0  0  0  0  0  0  0  0  0  0  0  0
    1.7650    6.9044   -7.8685 F   0  0  0  0  0  0  0  0  0  0  0  0
    0.7909    8.6142   -8.8825 F   0  0  0  0  0  0  0  0  0  0  0  0
   -0.5202    7.0206   -7.8666 F   0  0  0  0  0  0  0  0  0  0  0  0
    0.9181    5.1680   -9.4817 F   0  0  0  0  0  0  0  0  0  0  0  0
   -0.6563    6.5822  -10.3888 F   0  0  0  0  0  0  0  0  0  0  0  0
    2.9157    6.6058  -10.2555 F   0  0  0  0  0  0  0  0  0  0  0  0
    1.6669    8.4682  -10.4430 F   0  0  0  0  0  0  0  0  0  0  0  0
    0.3680    7.1954  -12.6784 F   0  0  0  0  0  0  0  0  0  0  0  0
    1.7435    5.5029  -12.3533 F   0  0  0  0  0  0  0  0  0  0  0  0
  1  2  1  0
  2  3  1  0
  3  4  1  0
  4  5  1  0
  5  6  1  0
  5  7  1  0
  5  8  1  0
  8  9  2  0
  8 10  2  0
  8 11  1  0
  4 12  1  0
  4 13  1  0
  3 14  1  0
  3 15  1  0
  2 16  1  0
  2 17  1  0
  1 18  1  0
 18 19  1  0
 19 20  1  0
 20 21  1  0
 20 22  1  0
 20 23  1  0
 19 24  1  0
 19 25  1  0
 18 26  1  0
 18 27  1  0
  1 28  1  0
  1 29  1  0
M  END
$$$$
