
     RDKit          3D

 14 14  0  0  0  0  0  0  0  0999 V2000
    8.4197  -43.5086   33.8551 C   0  0  0  0  0  0  0  0  0  0  0  0
    9.3051  -44.2481   32.8372 C   0  0  0  0  0  0  0  0  0  0  0  0
   10.7132  -43.9083   33.3022 C   0  0  0  0  0  0  0  0  0  0  0  0
   11.9972  -44.7801   32.4332 S   0  0  0  0  0  0  0  0  0  0  0  0
    9.0961  -43.5971   31.5262 C   0  0  0  0  0  0  0  0  0  0  0  0
    9.9110  -42.6276   31.2820 O   0  0  0  0  0  0  0  0  0  0  0  0
    8.1134  -43.9435   30.5758 N   0  0  0  0  0  0  0  0  0  0  0  0
    7.1044  -44.9802   30.5579 C   0  0  0  0  0  0  0  0  0  0  0  0
    5.9021  -44.2733   29.9112 C   0  0  0  0  0  0  0  0  0  0  0  0
    6.6390  -43.6670   28.7068 C   0  0  0  0  0  0  0  0  0  0  0  0
    7.9345  -43.2055   29.3190 C   0  0  0  0  0  0  0  0  0  0  0  0
    7.7921  -41.7402   29.5471 C   0  0  0  0  0  0  0  0  0  0  0  0
    7.8380  -41.2023   30.6790 O   0  0  0  0  0  0  0  0  0  0  0  0
    7.5984  -40.9537   28.4191 O   0  0  0  0  0  0  0  0  0  0  0  0
  1  2  1  0
  2  3  1  0
  3  4  1  0
  2  5  1  0
  5  6  2  0
  5  7  1  0
  7  8  1  0
  8  9  1  0
  9 10  1  0
 10 11  1  0
 11 12  1  0
 12 13  2  0
 12 14  1  0
 11  7  1  0
M  END
$$$$
