
     RDKit          3D

 14 14  0  0  0  0  0  0  0  0999 V2000
   13.0324  -47.8435   -6.6349 C   0  0  0  0  0  0  0  0  0  0  0  0
   13.4784  -46.3711   -6.6264 C   0  0  0  0  0  0  0  0  0  0  0  0
   12.7112  -45.7773   -7.7983 C   0  0  0  0  0  0  0  0  0  0  0  0
   12.8987  -44.0173   -7.9745 S   0  0  0  0  0  0  0  0  0  0  0  0
   14.9153  -46.3506   -6.9742 C   0  0  0  0  0  0  0  0  0  0  0  0
   15.1518  -46.2161   -8.2351 O   0  0  0  0  0  0  0  0  0  0  0  0
   15.9895  -46.4673   -6.0679 N   0  0  0  0  0  0  0  0  0  0  0  0
   16.0326  -46.6237   -4.6302 C   0  0  0  0  0  0  0  0  0  0  0  0
   17.2013  -47.6022   -4.4297 C   0  0  0  0  0  0  0  0  0  0  0  0
   18.2280  -46.8874   -5.3221 C   0  0  0  0  0  0  0  0  0  0  0  0
   17.3928  -46.4636   -6.5005 C   0  0  0  0  0  0  0  0  0  0  0  0
   17.6481  -47.4620   -7.5764 C   0  0  0  0  0  0  0  0  0  0  0  0
   16.8140  -48.3247   -7.9403 O   0  0  0  0  0  0  0  0  0  0  0  0
   18.8922  -47.4058   -8.1909 O   0  0  0  0  0  0  0  0  0  0  0  0
  1  2  1  0
  2  3  1  0
  3  4  1  0
  2  5  1  0
  5  6  2  0
  5  7  1  0
  7  8  1  0
  8  9  1  0
  9 10  1  0
 10 11  1  0
 11 12  1  0
 12 13  2  0
 12 14  1  0
 11  7  1  0
M  END
$$$$
