
     RDKit          3D

 14 14  0  0  0  0  0  0  0  0999 V2000
    9.3660  -49.6211   31.4660 C   0  0  0  0  0  0  0  0  0  0  0  0
   10.8784  -49.5716   31.7436 C   0  0  0  0  0  0  0  0  0  0  0  0
   11.0949  -50.7677   32.6585 C   0  0  0  0  0  0  0  0  0  0  0  0
   12.8048  -51.1549   32.9584 S   0  0  0  0  0  0  0  0  0  0  0  0
   11.1349  -48.3492   32.5348 C   0  0  0  0  0  0  0  0  0  0  0  0
   11.1780  -48.5442   33.8092 O   0  0  0  0  0  0  0  0  0  0  0  0
   11.3210  -47.0505   32.0175 N   0  0  0  0  0  0  0  0  0  0  0  0
   11.3632  -46.5430   30.6632 C   0  0  0  0  0  0  0  0  0  0  0  0
   10.6312  -45.1963   30.7821 C   0  0  0  0  0  0  0  0  0  0  0  0
   11.3868  -44.6549   32.0058 C   0  0  0  0  0  0  0  0  0  0  0  0
   11.5056  -45.8755   32.8786 C   0  0  0  0  0  0  0  0  0  0  0  0
   10.4331  -45.7623   33.9064 C   0  0  0  0  0  0  0  0  0  0  0  0
    9.4426  -46.5289   33.9690 O   0  0  0  0  0  0  0  0  0  0  0  0
   10.5694  -44.7374   34.8335 O   0  0  0  0  0  0  0  0  0  0  0  0
  1  2  1  0
  2  3  1  0
  3  4  1  0
  2  5  1  0
  5  6  2  0
  5  7  1  0
  7  8  1  0
  8  9  1  0
  9 10  1  0
 10 11  1  0
 11 12  1  0
 12 13  2  0
 12 14  1  0
 11  7  1  0
M  END
$$$$
