
     RDKit          3D

 14 14  0  0  0  0  0  0  0  0999 V2000
   12.9088  -49.3538   43.0057 C   0  0  0  0  0  0  0  0  0  0  0  0
   12.3198  -48.7057   41.7408 C   0  0  0  0  0  0  0  0  0  0  0  0
   12.9666  -49.5032   40.6182 C   0  0  0  0  0  0  0  0  0  0  0  0
   14.7415  -49.5784   40.7075 S   0  0  0  0  0  0  0  0  0  0  0  0
   12.8481  -47.3264   41.6734 C   0  0  0  0  0  0  0  0  0  0  0  0
   13.7958  -47.1651   40.8134 O   0  0  0  0  0  0  0  0  0  0  0  0
   12.4119  -46.2327   42.4496 N   0  0  0  0  0  0  0  0  0  0  0  0
   11.2974  -46.0714   43.3580 C   0  0  0  0  0  0  0  0  0  0  0  0
   11.8973  -45.2118   44.4826 C   0  0  0  0  0  0  0  0  0  0  0  0
   12.5451  -44.1341   43.5994 C   0  0  0  0  0  0  0  0  0  0  0  0
   13.1168  -44.9446   42.4670 C   0  0  0  0  0  0  0  0  0  0  0  0
   14.5688  -45.1066   42.7585 C   0  0  0  0  0  0  0  0  0  0  0  0
   15.1109  -46.2083   43.0136 O   0  0  0  0  0  0  0  0  0  0  0  0
   15.3374  -43.9501   42.7383 O   0  0  0  0  0  0  0  0  0  0  0  0
  1  2  1  0
  2  3  1  0
  3  4  1  0
  2  5  1  0
  5  6  2  0
  5  7  1  0
  7  8  1  0
  8  9  1  0
  9 10  1  0
 10 11  1  0
 11 12  1  0
 12 13  2  0
 12 14  1  0
 11  7  1  0
M  END
$$$$
