
     RDKit          3D

 25 24  0  0  0  0  0  0  0  0999 V2000
   -1.0804   -6.8792   -9.0023 C   0  0  0  0  0  0  0  0  0  0  0  0
   -0.3140   -5.9988   -9.5139 O   0  0  0  0  0  0  0  0  0  0  0  0
   -0.6425   -7.6231   -7.8358 C   0  0  0  0  0  0  0  0  0  0  0  0
    0.4608   -7.1453   -6.9907 C   0  0  0  0  0  0  0  0  0  0  0  0
    0.4198   -5.8621   -6.3048 C   0  0  0  0  0  0  0  0  0  0  0  0
    1.6112   -5.1454   -5.8069 C   0  0  0  0  0  0  0  0  0  0  0  0
    1.4012   -3.7397   -5.3484 C   0  0  0  0  0  0  0  0  0  0  0  0
    2.6124   -2.9640   -4.9691 C   0  0  0  0  0  0  0  0  0  0  0  0
    2.5060   -1.4959   -4.8322 C   0  0  0  0  0  0  0  0  0  0  0  0
    1.5188   -1.2832   -3.8343 F   0  0  0  0  0  0  0  0  0  0  0  0
    2.0511   -0.8275   -5.9582 F   0  0  0  0  0  0  0  0  0  0  0  0
    3.6398   -0.8799   -4.3903 F   0  0  0  0  0  0  0  0  0  0  0  0
    3.1739   -3.5517   -3.8395 F   0  0  0  0  0  0  0  0  0  0  0  0
    3.5630   -3.2023   -5.9803 F   0  0  0  0  0  0  0  0  0  0  0  0
    0.5341   -3.7333   -4.2183 F   0  0  0  0  0  0  0  0  0  0  0  0
    0.7232   -3.0002   -6.2819 F   0  0  0  0  0  0  0  0  0  0  0  0
    1.9892   -5.9262   -4.6553 F   0  0  0  0  0  0  0  0  0  0  0  0
    2.7189   -5.2575   -6.6123 F   0  0  0  0  0  0  0  0  0  0  0  0
   -0.5091   -5.9996   -5.2268 F   0  0  0  0  0  0  0  0  0  0  0  0
   -0.2746   -4.9450   -7.1320 F   0  0  0  0  0  0  0  0  0  0  0  0
    0.8561   -8.2123   -6.1829 F   0  0  0  0  0  0  0  0  0  0  0  0
    1.5739   -7.0436   -7.8949 F   0  0  0  0  0  0  0  0  0  0  0  0
   -1.8263   -7.7882   -7.0486 F   0  0  0  0  0  0  0  0  0  0  0  0
   -0.4014   -8.9466   -8.2452 F   0  0  0  0  0  0  0  0  0  0  0  0
   -2.2987   -7.0293   -9.6599 O   0  0  0  0  0  0  0  0  0  0  0  0
  1  2  2  0
  1  3  1  0
  3  4  1  0
  4  5  1  0
  5  6  1  0
  6  7  1  0
  7  8  1  0
  8  9  1  0
  9 10  1  0
  9 11  1  0
  9 12  1  0
  8 13  1  0
  8 14  1  0
  7 15  1  0
  7 16  1  0
  6 17  1  0
  6 18  1  0
  5 19  1  0
  5 20  1  0
  4 21  1  0
  4 22  1  0
  3 23  1  0
  3 24  1  0
  1 25  1  0
M  END
$$$$
