
     RDKit          3D

 25 24  0  0  0  0  0  0  0  0999 V2000
  -11.6649  -12.9447    6.5797 C   0  0  0  0  0  0  0  0  0  0  0  0
  -11.4452  -13.2820    5.3705 O   0  0  0  0  0  0  0  0  0  0  0  0
  -10.8777  -11.8865    7.1851 C   0  0  0  0  0  0  0  0  0  0  0  0
   -9.4651  -11.6839    6.8338 C   0  0  0  0  0  0  0  0  0  0  0  0
   -8.6549  -10.6327    7.4315 C   0  0  0  0  0  0  0  0  0  0  0  0
   -7.3127  -10.2426    6.9544 C   0  0  0  0  0  0  0  0  0  0  0  0
   -6.5701   -9.2512    7.7886 C   0  0  0  0  0  0  0  0  0  0  0  0
   -5.2383   -8.8126    7.2923 C   0  0  0  0  0  0  0  0  0  0  0  0
   -4.6189   -7.6063    7.8809 C   0  0  0  0  0  0  0  0  0  0  0  0
   -5.6570   -6.6391    7.9324 F   0  0  0  0  0  0  0  0  0  0  0  0
   -3.6080   -7.0314    7.1265 F   0  0  0  0  0  0  0  0  0  0  0  0
   -4.1717   -7.7602    9.1602 F   0  0  0  0  0  0  0  0  0  0  0  0
   -4.3773   -9.9055    7.3216 F   0  0  0  0  0  0  0  0  0  0  0  0
   -5.3996   -8.5480    5.9187 F   0  0  0  0  0  0  0  0  0  0  0  0
   -6.3709   -9.7840    9.0946 F   0  0  0  0  0  0  0  0  0  0  0  0
   -7.3121   -8.1204    8.0091 F   0  0  0  0  0  0  0  0  0  0  0  0
   -6.5862  -11.4867    7.0082 F   0  0  0  0  0  0  0  0  0  0  0  0
   -7.2546   -9.9278    5.6181 F   0  0  0  0  0  0  0  0  0  0  0  0
   -8.5726  -10.9194    8.8297 F   0  0  0  0  0  0  0  0  0  0  0  0
   -9.4259   -9.4443    7.4539 F   0  0  0  0  0  0  0  0  0  0  0  0
   -8.8560  -12.9394    6.8252 F   0  0  0  0  0  0  0  0  0  0  0  0
   -9.4960  -11.3715    5.4307 F   0  0  0  0  0  0  0  0  0  0  0  0
  -11.6224  -10.6916    6.9281 F   0  0  0  0  0  0  0  0  0  0  0  0
  -11.0189  -12.0003    8.5795 F   0  0  0  0  0  0  0  0  0  0  0  0
  -12.6772  -13.6709    7.2016 O   0  0  0  0  0  0  0  0  0  0  0  0
  1  2  2  0
  1  3  1  0
  3  4  1  0
  4  5  1  0
  5  6  1  0
  6  7  1  0
  7  8  1  0
  8  9  1  0
  9 10  1  0
  9 11  1  0
  9 12  1  0
  8 13  1  0
  8 14  1  0
  7 15  1  0
  7 16  1  0
  6 17  1  0
  6 18  1  0
  5 19  1  0
  5 20  1  0
  4 21  1  0
  4 22  1  0
  3 23  1  0
  3 24  1  0
  1 25  1  0
M  END
$$$$
