
     RDKit          3D

 25 24  0  0  0  0  0  0  0  0999 V2000
   -2.6986  -14.9084    9.5262 C   0  0  0  0  0  0  0  0  0  0  0  0
   -2.6262  -14.5949   10.7593 O   0  0  0  0  0  0  0  0  0  0  0  0
   -1.6624  -14.4681    8.6106 C   0  0  0  0  0  0  0  0  0  0  0  0
   -0.6017  -13.5452    9.0385 C   0  0  0  0  0  0  0  0  0  0  0  0
    0.5234  -13.1981    8.1827 C   0  0  0  0  0  0  0  0  0  0  0  0
    1.7004  -12.4247    8.6271 C   0  0  0  0  0  0  0  0  0  0  0  0
    2.6200  -11.9351    7.5572 C   0  0  0  0  0  0  0  0  0  0  0  0
    3.7961  -11.1341    7.9906 C   0  0  0  0  0  0  0  0  0  0  0  0
    4.7915  -10.7222    6.9784 C   0  0  0  0  0  0  0  0  0  0  0  0
    4.0792   -9.9016    6.0646 F   0  0  0  0  0  0  0  0  0  0  0  0
    5.3257  -11.7520    6.2196 F   0  0  0  0  0  0  0  0  0  0  0  0
    5.8160   -9.9622    7.4610 F   0  0  0  0  0  0  0  0  0  0  0  0
    3.3392  -10.0538    8.7395 F   0  0  0  0  0  0  0  0  0  0  0  0
    4.4857  -11.9262    8.9286 F   0  0  0  0  0  0  0  0  0  0  0  0
    1.8898  -11.1331    6.6338 F   0  0  0  0  0  0  0  0  0  0  0  0
    3.0938  -12.9656    6.7881 F   0  0  0  0  0  0  0  0  0  0  0  0
    1.1013  -11.2694    9.2475 F   0  0  0  0  0  0  0  0  0  0  0  0
    2.3911  -12.9917    9.6711 F   0  0  0  0  0  0  0  0  0  0  0  0
   -0.0207  -12.5668    7.0211 F   0  0  0  0  0  0  0  0  0  0  0  0
    1.0289  -14.3945    7.6166 F   0  0  0  0  0  0  0  0  0  0  0  0
   -1.2232  -12.4488    9.6376 F   0  0  0  0  0  0  0  0  0  0  0  0
   -0.0112  -14.1961   10.1763 F   0  0  0  0  0  0  0  0  0  0  0  0
   -1.0856  -15.6787    8.1103 F   0  0  0  0  0  0  0  0  0  0  0  0
   -2.2992  -13.9739    7.4585 F   0  0  0  0  0  0  0  0  0  0  0  0
   -3.8184  -15.6660    9.1930 O   0  0  0  0  0  0  0  0  0  0  0  0
  1  2  2  0
  1  3  1  0
  3  4  1  0
  4  5  1  0
  5  6  1  0
  6  7  1  0
  7  8  1  0
  8  9  1  0
  9 10  1  0
  9 11  1  0
  9 12  1  0
  8 13  1  0
  8 14  1  0
  7 15  1  0
  7 16  1  0
  6 17  1  0
  6 18  1  0
  5 19  1  0
  5 20  1  0
  4 21  1  0
  4 22  1  0
  3 23  1  0
  3 24  1  0
  1 25  1  0
M  END
$$$$
