
     RDKit          3D

 25 24  0  0  0  0  0  0  0  0999 V2000
   -8.2174   -5.0748  -15.4739 C   0  0  0  0  0  0  0  0  0  0  0  0
   -8.7899   -5.1754  -14.3398 O   0  0  0  0  0  0  0  0  0  0  0  0
   -7.2292   -4.0344  -15.6903 C   0  0  0  0  0  0  0  0  0  0  0  0
   -6.9950   -2.9792  -14.6945 C   0  0  0  0  0  0  0  0  0  0  0  0
   -5.9064   -2.0204  -14.8142 C   0  0  0  0  0  0  0  0  0  0  0  0
   -5.6736   -0.9033  -13.8766 C   0  0  0  0  0  0  0  0  0  0  0  0
   -4.5171   -0.0081  -14.1792 C   0  0  0  0  0  0  0  0  0  0  0  0
   -4.3353    1.1809  -13.3041 C   0  0  0  0  0  0  0  0  0  0  0  0
   -3.4790    2.2898  -13.7754 C   0  0  0  0  0  0  0  0  0  0  0  0
   -4.0856    2.7482  -14.9744 F   0  0  0  0  0  0  0  0  0  0  0  0
   -2.1853    1.9328  -14.1225 F   0  0  0  0  0  0  0  0  0  0  0  0
   -3.4225    3.3640  -12.9369 F   0  0  0  0  0  0  0  0  0  0  0  0
   -5.5912    1.6280  -12.9048 F   0  0  0  0  0  0  0  0  0  0  0  0
   -3.7529    0.7058  -12.1134 F   0  0  0  0  0  0  0  0  0  0  0  0
   -4.6261    0.4733  -15.5154 F   0  0  0  0  0  0  0  0  0  0  0  0
   -3.3322   -0.6964  -14.1779 F   0  0  0  0  0  0  0  0  0  0  0  0
   -6.8766   -0.1209  -14.0151 F   0  0  0  0  0  0  0  0  0  0  0  0
   -5.7077   -1.2592  -12.5498 F   0  0  0  0  0  0  0  0  0  0  0  0
   -5.9652   -1.4925  -16.1415 F   0  0  0  0  0  0  0  0  0  0  0  0
   -4.6898   -2.7439  -14.8749 F   0  0  0  0  0  0  0  0  0  0  0  0
   -8.2323   -2.4048  -14.4005 F   0  0  0  0  0  0  0  0  0  0  0  0
   -6.7188   -3.6997  -13.4814 F   0  0  0  0  0  0  0  0  0  0  0  0
   -6.0123   -4.7417  -15.9496 F   0  0  0  0  0  0  0  0  0  0  0  0
   -7.4857   -3.4640  -16.9498 F   0  0  0  0  0  0  0  0  0  0  0  0
   -8.6341   -6.0167  -16.4110 O   0  0  0  0  0  0  0  0  0  0  0  0
  1  2  2  0
  1  3  1  0
  3  4  1  0
  4  5  1  0
  5  6  1  0
  6  7  1  0
  7  8  1  0
  8  9  1  0
  9 10  1  0
  9 11  1  0
  9 12  1  0
  8 13  1  0
  8 14  1  0
  7 15  1  0
  7 16  1  0
  6 17  1  0
  6 18  1  0
  5 19  1  0
  5 20  1  0
  4 21  1  0
  4 22  1  0
  3 23  1  0
  3 24  1  0
  1 25  1  0
M  END
$$$$
