
     RDKit          3D

  4  3  0  0  0  0  0  0  0  0999 V2000
   -1.6923   -6.0633   11.6405 C   0  0  0  0  0  0  0  0  0  0  0  0
   -2.7831   -6.4720   12.6287 C   0  0  0  0  0  0  0  0  0  0  0  0
   -2.5208   -8.2106   12.9291 Cl  0  0  0  0  0  0  0  0  0  0  0  0
   -2.0386   -4.5577   10.8121 Cl  0  0  0  0  0  0  0  0  0  0  0  0
  1  2  1  0
  2  3  1  0
  1  4  1  0
M  END
$$$$
