
     RDKit          3D

  4  3  0  0  0  0  0  0  0  0999 V2000
  -12.2759    3.8811   -5.1917 C   0  0  0  0  0  0  0  0  0  0  0  0
  -11.3140    4.9849   -5.6274 C   0  0  0  0  0  0  0  0  0  0  0  0
  -10.6635    4.4508   -7.2000 Cl  0  0  0  0  0  0  0  0  0  0  0  0
  -13.1184    4.2478   -3.6989 Cl  0  0  0  0  0  0  0  0  0  0  0  0
  1  2  1  0
  2  3  1  0
  1  4  1  0
M  END
$$$$
