
     RDKit          3D

  4  3  0  0  0  0  0  0  0  0999 V2000
   -9.6273    3.3770  -14.4719 C   0  0  0  0  0  0  0  0  0  0  0  0
  -10.0196    2.1851  -15.3430 C   0  0  0  0  0  0  0  0  0  0  0  0
  -10.6677    2.8923  -16.8469 Cl  0  0  0  0  0  0  0  0  0  0  0  0
   -8.6204    2.9342  -13.1070 Cl  0  0  0  0  0  0  0  0  0  0  0  0
  1  2  1  0
  2  3  1  0
  1  4  1  0
M  END
$$$$
