
     RDKit          3D

 29 28  0  0  0  0  0  0  0  0999 V2000
    9.2375    8.8146   -9.7023 C   0  0  0  0  0  0  0  0  0  0  0  0
    8.3770    8.2856  -10.8044 C   0  0  0  0  0  0  0  0  0  0  0  0
    6.9557    8.6698  -10.7852 C   0  0  0  0  0  0  0  0  0  0  0  0
    6.0055    8.4257  -11.8527 C   0  0  0  0  0  0  0  0  0  0  0  0
    4.5632    8.6909  -11.7622 C   0  0  0  0  0  0  0  0  0  0  0  0
    3.9507    7.9700  -10.7180 F   0  0  0  0  0  0  0  0  0  0  0  0
    4.4283   10.0394  -11.1755 F   0  0  0  0  0  0  0  0  0  0  0  0
    3.5226    8.7570  -13.1288 S   0  0  0  0  0  0  0  0  0  0  0  0
    3.3380    7.5150  -13.9339 O   0  0  0  0  0  0  0  0  0  0  0  0
    3.8437    9.9229  -14.0470 O   0  0  0  0  0  0  0  0  0  0  0  0
    1.9152    9.1080  -12.5986 O   0  0  0  0  0  0  0  0  0  0  0  0
    6.2135    7.1285  -12.4367 F   0  0  0  0  0  0  0  0  0  0  0  0
    6.4569    9.2468  -12.9434 F   0  0  0  0  0  0  0  0  0  0  0  0
    6.9324   10.0757  -10.5023 F   0  0  0  0  0  0  0  0  0  0  0  0
    6.3853    8.1616   -9.5800 F   0  0  0  0  0  0  0  0  0  0  0  0
    8.2866    6.8541  -10.4899 F   0  0  0  0  0  0  0  0  0  0  0  0
    9.0265    8.2485  -11.9881 F   0  0  0  0  0  0  0  0  0  0  0  0
   10.6205    8.2578   -9.6797 C   0  0  0  0  0  0  0  0  0  0  0  0
   11.6987    9.0835   -9.0853 C   0  0  0  0  0  0  0  0  0  0  0  0
   12.9818    8.2159   -8.9951 C   0  0  0  0  0  0  0  0  0  0  0  0
   13.8661    8.9770   -8.2344 F   0  0  0  0  0  0  0  0  0  0  0  0
   13.4771    7.9290  -10.2413 F   0  0  0  0  0  0  0  0  0  0  0  0
   12.6635    7.1027   -8.2643 F   0  0  0  0  0  0  0  0  0  0  0  0
   11.4812    9.4008   -7.7301 F   0  0  0  0  0  0  0  0  0  0  0  0
   12.0168   10.2275   -9.7588 F   0  0  0  0  0  0  0  0  0  0  0  0
   10.9964    7.9932  -11.0090 F   0  0  0  0  0  0  0  0  0  0  0  0
   10.5838    7.0253   -9.0443 F   0  0  0  0  0  0  0  0  0  0  0  0
    9.3452   10.1828   -9.8060 F   0  0  0  0  0  0  0  0  0  0  0  0
    8.6103    8.6177   -8.4541 F   0  0  0  0  0  0  0  0  0  0  0  0
  1  2  1  0
  2  3  1  0
  3  4  1  0
  4  5  1  0
  5  6  1  0
  5  7  1  0
  5  8  1  0
  8  9  2  0
  8 10  2  0
  8 11  1  0
  4 12  1  0
  4 13  1  0
  3 14  1  0
  3 15  1  0
  2 16  1  0
  2 17  1  0
  1 18  1  0
 18 19  1  0
 19 20  1  0
 20 21  1  0
 20 22  1  0
 20 23  1  0
 19 24  1  0
 19 25  1  0
 18 26  1  0
 18 27  1  0
  1 28  1  0
  1 29  1  0
M  END
$$$$
