
     RDKit          3D

 29 28  0  0  0  0  0  0  0  0999 V2000
   -4.4062   -3.4796   -9.1448 C   0  0  0  0  0  0  0  0  0  0  0  0
   -5.7243   -3.6853   -9.8195 C   0  0  0  0  0  0  0  0  0  0  0  0
   -6.6283   -4.6861   -9.2285 C   0  0  0  0  0  0  0  0  0  0  0  0
   -7.9580   -5.0048   -9.7103 C   0  0  0  0  0  0  0  0  0  0  0  0
   -8.8086   -6.0723   -9.1663 C   0  0  0  0  0  0  0  0  0  0  0  0
   -8.1982   -7.3393   -9.2523 F   0  0  0  0  0  0  0  0  0  0  0  0
   -8.7597   -5.9298   -7.6973 F   0  0  0  0  0  0  0  0  0  0  0  0
  -10.4924   -6.2009   -9.4874 S   0  0  0  0  0  0  0  0  0  0  0  0
  -10.9378   -7.1638  -10.5358 O   0  0  0  0  0  0  0  0  0  0  0  0
  -11.1438   -4.8491   -9.7196 O   0  0  0  0  0  0  0  0  0  0  0  0
  -11.2948   -6.7835   -8.0714 O   0  0  0  0  0  0  0  0  0  0  0  0
   -7.9816   -5.0652  -11.1466 F   0  0  0  0  0  0  0  0  0  0  0  0
   -8.7195   -3.8006   -9.5157 F   0  0  0  0  0  0  0  0  0  0  0  0
   -6.7453   -4.3395   -7.8416 F   0  0  0  0  0  0  0  0  0  0  0  0
   -5.9068   -5.9124   -9.1208 F   0  0  0  0  0  0  0  0  0  0  0  0
   -5.3490   -4.3501  -11.0739 F   0  0  0  0  0  0  0  0  0  0  0  0
   -6.2462   -2.5303  -10.2865 F   0  0  0  0  0  0  0  0  0  0  0  0
   -3.4852   -2.5525   -9.8627 C   0  0  0  0  0  0  0  0  0  0  0  0
   -2.1967   -2.2055   -9.2170 C   0  0  0  0  0  0  0  0  0  0  0  0
   -1.4881   -1.1361  -10.0895 C   0  0  0  0  0  0  0  0  0  0  0  0
   -0.1477   -1.2139   -9.7187 F   0  0  0  0  0  0  0  0  0  0  0  0
   -2.0180    0.1106   -9.8765 F   0  0  0  0  0  0  0  0  0  0  0  0
   -1.5797   -1.5536  -11.3902 F   0  0  0  0  0  0  0  0  0  0  0  0
   -1.2555   -3.2536   -9.2419 F   0  0  0  0  0  0  0  0  0  0  0  0
   -2.2772   -1.7175   -7.9447 F   0  0  0  0  0  0  0  0  0  0  0  0
   -4.1736   -1.3440  -10.0728 F   0  0  0  0  0  0  0  0  0  0  0  0
   -3.2399   -3.0728  -11.1250 F   0  0  0  0  0  0  0  0  0  0  0  0
   -4.6000   -2.9715   -7.8804 F   0  0  0  0  0  0  0  0  0  0  0  0
   -3.7734   -4.7199   -8.9183 F   0  0  0  0  0  0  0  0  0  0  0  0
  1  2  1  0
  2  3  1  0
  3  4  1  0
  4  5  1  0
  5  6  1  0
  5  7  1  0
  5  8  1  0
  8  9  2  0
  8 10  2  0
  8 11  1  0
  4 12  1  0
  4 13  1  0
  3 14  1  0
  3 15  1  0
  2 16  1  0
  2 17  1  0
  1 18  1  0
 18 19  1  0
 19 20  1  0
 20 21  1  0
 20 22  1  0
 20 23  1  0
 19 24  1  0
 19 25  1  0
 18 26  1  0
 18 27  1  0
  1 28  1  0
  1 29  1  0
M  END
$$$$
