
     RDKit          3D

 29 28  0  0  0  0  0  0  0  0999 V2000
   -5.2158   -3.5283   -9.2231 C   0  0  0  0  0  0  0  0  0  0  0  0
   -5.6712   -4.9166   -8.9067 C   0  0  0  0  0  0  0  0  0  0  0  0
   -7.1245   -5.1472   -8.8534 C   0  0  0  0  0  0  0  0  0  0  0  0
   -7.7647   -6.3753   -8.4248 C   0  0  0  0  0  0  0  0  0  0  0  0
   -9.2183   -6.5765   -8.3511 C   0  0  0  0  0  0  0  0  0  0  0  0
   -9.8478   -5.6314   -7.5169 F   0  0  0  0  0  0  0  0  0  0  0  0
   -9.7660   -6.0994   -9.6368 F   0  0  0  0  0  0  0  0  0  0  0  0
   -9.9550   -8.1182   -8.1642 S   0  0  0  0  0  0  0  0  0  0  0  0
   -9.6709   -8.8880   -6.9187 O   0  0  0  0  0  0  0  0  0  0  0  0
   -9.7531   -9.0088   -9.3773 O   0  0  0  0  0  0  0  0  0  0  0  0
  -11.6713   -7.9209   -8.1051 O   0  0  0  0  0  0  0  0  0  0  0  0
   -7.1547   -6.8790   -7.2243 F   0  0  0  0  0  0  0  0  0  0  0  0
   -7.3078   -7.3731   -9.3540 F   0  0  0  0  0  0  0  0  0  0  0  0
   -7.6196   -4.8389  -10.1638 F   0  0  0  0  0  0  0  0  0  0  0  0
   -7.7060   -4.0786   -8.1076 F   0  0  0  0  0  0  0  0  0  0  0  0
   -5.3100   -5.0643   -7.4911 F   0  0  0  0  0  0  0  0  0  0  0  0
   -4.8824   -5.8557   -9.4728 F   0  0  0  0  0  0  0  0  0  0  0  0
   -3.7402   -3.3309   -9.1419 C   0  0  0  0  0  0  0  0  0  0  0  0
   -3.1465   -2.1793   -9.8623 C   0  0  0  0  0  0  0  0  0  0  0  0
   -1.7185   -1.9407   -9.3046 C   0  0  0  0  0  0  0  0  0  0  0  0
   -0.9725   -3.0161   -9.7812 F   0  0  0  0  0  0  0  0  0  0  0  0
   -1.7240   -1.8744   -7.9348 F   0  0  0  0  0  0  0  0  0  0  0  0
   -1.2369   -0.8082   -9.9044 F   0  0  0  0  0  0  0  0  0  0  0  0
   -3.7695   -0.9505   -9.5676 F   0  0  0  0  0  0  0  0  0  0  0  0
   -3.0476   -2.3077  -11.2177 F   0  0  0  0  0  0  0  0  0  0  0  0
   -3.1254   -4.4895   -9.6500 F   0  0  0  0  0  0  0  0  0  0  0  0
   -3.3819   -3.2684   -7.8033 F   0  0  0  0  0  0  0  0  0  0  0  0
   -5.6087   -3.1839  -10.4965 F   0  0  0  0  0  0  0  0  0  0  0  0
   -5.8804   -2.5956   -8.3995 F   0  0  0  0  0  0  0  0  0  0  0  0
  1  2  1  0
  2  3  1  0
  3  4  1  0
  4  5  1  0
  5  6  1  0
  5  7  1  0
  5  8  1  0
  8  9  2  0
  8 10  2  0
  8 11  1  0
  4 12  1  0
  4 13  1  0
  3 14  1  0
  3 15  1  0
  2 16  1  0
  2 17  1  0
  1 18  1  0
 18 19  1  0
 19 20  1  0
 20 21  1  0
 20 22  1  0
 20 23  1  0
 19 24  1  0
 19 25  1  0
 18 26  1  0
 18 27  1  0
  1 28  1  0
  1 29  1  0
M  END
$$$$
