
     RDKit          3D

 29 28  0  0  0  0  0  0  0  0999 V2000
   -1.1306  -12.6294   -7.8026 C   0  0  0  0  0  0  0  0  0  0  0  0
   -0.9986  -11.1549   -7.5949 C   0  0  0  0  0  0  0  0  0  0  0  0
   -2.1459  -10.3196   -7.9875 C   0  0  0  0  0  0  0  0  0  0  0  0
   -2.1673   -8.8700   -7.9898 C   0  0  0  0  0  0  0  0  0  0  0  0
   -3.3109   -8.0534   -8.4191 C   0  0  0  0  0  0  0  0  0  0  0  0
   -3.6472   -8.2713   -9.7699 F   0  0  0  0  0  0  0  0  0  0  0  0
   -4.5084   -8.6721   -7.8160 F   0  0  0  0  0  0  0  0  0  0  0  0
   -3.4922   -6.3907   -8.0224 S   0  0  0  0  0  0  0  0  0  0  0  0
   -2.3626   -5.4663   -8.3293 O   0  0  0  0  0  0  0  0  0  0  0  0
   -3.9535   -6.1826   -6.5907 O   0  0  0  0  0  0  0  0  0  0  0  0
   -4.7895   -5.7263   -8.9517 O   0  0  0  0  0  0  0  0  0  0  0  0
   -0.9626   -8.3408   -8.5691 F   0  0  0  0  0  0  0  0  0  0  0  0
   -1.9497   -8.4957   -6.6185 F   0  0  0  0  0  0  0  0  0  0  0  0
   -3.2487  -10.7645   -7.1856 F   0  0  0  0  0  0  0  0  0  0  0  0
   -2.5796  -10.7559   -9.2751 F   0  0  0  0  0  0  0  0  0  0  0  0
   -0.0089  -10.7694   -8.6089 F   0  0  0  0  0  0  0  0  0  0  0  0
   -0.3328  -10.8556   -6.4585 F   0  0  0  0  0  0  0  0  0  0  0  0
    0.1552  -13.3800   -7.7228 C   0  0  0  0  0  0  0  0  0  0  0  0
    0.0994  -14.8591   -7.6412 C   0  0  0  0  0  0  0  0  0  0  0  0
    1.2637  -15.4370   -8.4883 C   0  0  0  0  0  0  0  0  0  0  0  0
    0.9939  -16.8011   -8.5697 F   0  0  0  0  0  0  0  0  0  0  0  0
    2.4784  -15.1780   -7.9068 F   0  0  0  0  0  0  0  0  0  0  0  0
    1.1398  -14.9175   -9.7490 F   0  0  0  0  0  0  0  0  0  0  0  0
   -1.0203  -15.4159   -8.2902 F   0  0  0  0  0  0  0  0  0  0  0  0
    0.1917  -15.3933   -6.3884 F   0  0  0  0  0  0  0  0  0  0  0  0
    0.8396  -12.9347   -6.5775 F   0  0  0  0  0  0  0  0  0  0  0  0
    0.9436  -13.0098   -8.8025 F   0  0  0  0  0  0  0  0  0  0  0  0
   -1.9788  -13.1626   -6.8588 F   0  0  0  0  0  0  0  0  0  0  0  0
   -1.7772  -12.8952   -9.0280 F   0  0  0  0  0  0  0  0  0  0  0  0
  1  2  1  0
  2  3  1  0
  3  4  1  0
  4  5  1  0
  5  6  1  0
  5  7  1  0
  5  8  1  0
  8  9  2  0
  8 10  2  0
  8 11  1  0
  4 12  1  0
  4 13  1  0
  3 14  1  0
  3 15  1  0
  2 16  1  0
  2 17  1  0
  1 18  1  0
 18 19  1  0
 19 20  1  0
 20 21  1  0
 20 22  1  0
 20 23  1  0
 19 24  1  0
 19 25  1  0
 18 26  1  0
 18 27  1  0
  1 28  1  0
  1 29  1  0
M  END
$$$$
