
     RDKit          3D

 29 28  0  0  0  0  0  0  0  0999 V2000
    7.4278    9.4657   -8.1442 C   0  0  0  0  0  0  0  0  0  0  0  0
    7.0824    9.7011   -9.5795 C   0  0  0  0  0  0  0  0  0  0  0  0
    5.9131    8.9818  -10.1119 C   0  0  0  0  0  0  0  0  0  0  0  0
    5.4709    9.0038  -11.4924 C   0  0  0  0  0  0  0  0  0  0  0  0
    4.4226    8.1358  -12.0463 C   0  0  0  0  0  0  0  0  0  0  0  0
    4.6856    6.7697  -11.8233 F   0  0  0  0  0  0  0  0  0  0  0  0
    3.2621    8.2628  -11.1420 F   0  0  0  0  0  0  0  0  0  0  0  0
    3.7278    8.3610  -13.6023 S   0  0  0  0  0  0  0  0  0  0  0  0
    4.3593    9.3544  -14.5184 O   0  0  0  0  0  0  0  0  0  0  0  0
    2.2293    8.5977  -13.5401 O   0  0  0  0  0  0  0  0  0  0  0  0
    3.8541    6.8868  -14.4962 O   0  0  0  0  0  0  0  0  0  0  0  0
    6.5939    9.0231  -12.3898 F   0  0  0  0  0  0  0  0  0  0  0  0
    4.9827   10.3400  -11.7021 F   0  0  0  0  0  0  0  0  0  0  0  0
    4.8018    9.3814   -9.2980 F   0  0  0  0  0  0  0  0  0  0  0  0
    6.0308    7.6141   -9.7220 F   0  0  0  0  0  0  0  0  0  0  0  0
    8.1759    9.0292  -10.2931 F   0  0  0  0  0  0  0  0  0  0  0  0
    7.2831   10.9842   -9.9506 F   0  0  0  0  0  0  0  0  0  0  0  0
    8.8332    9.8100   -7.7846 C   0  0  0  0  0  0  0  0  0  0  0  0
    9.2503    9.6647   -6.3695 C   0  0  0  0  0  0  0  0  0  0  0  0
   10.7835    9.8885   -6.2891 C   0  0  0  0  0  0  0  0  0  0  0  0
   11.1172    9.5571   -4.9780 F   0  0  0  0  0  0  0  0  0  0  0  0
   11.1145   11.1819   -6.6021 F   0  0  0  0  0  0  0  0  0  0  0  0
   11.3685    8.9612   -7.1092 F   0  0  0  0  0  0  0  0  0  0  0  0
    9.1351    8.3478   -5.8822 F   0  0  0  0  0  0  0  0  0  0  0  0
    8.6587   10.5153   -5.4808 F   0  0  0  0  0  0  0  0  0  0  0  0
    9.0469   11.1552   -8.1358 F   0  0  0  0  0  0  0  0  0  0  0  0
    9.6836    9.0686   -8.5917 F   0  0  0  0  0  0  0  0  0  0  0  0
    6.6006   10.2098   -7.3340 F   0  0  0  0  0  0  0  0  0  0  0  0
    7.1435    8.1315   -7.7847 F   0  0  0  0  0  0  0  0  0  0  0  0
  1  2  1  0
  2  3  1  0
  3  4  1  0
  4  5  1  0
  5  6  1  0
  5  7  1  0
  5  8  1  0
  8  9  2  0
  8 10  2  0
  8 11  1  0
  4 12  1  0
  4 13  1  0
  3 14  1  0
  3 15  1  0
  2 16  1  0
  2 17  1  0
  1 18  1  0
 18 19  1  0
 19 20  1  0
 20 21  1  0
 20 22  1  0
 20 23  1  0
 19 24  1  0
 19 25  1  0
 18 26  1  0
 18 27  1  0
  1 28  1  0
  1 29  1  0
M  END
$$$$
