
     RDKit          3D

 25 24  0  0  0  0  0  0  0  0999 V2000
   -0.7878   -4.7910  -18.1904 C   0  0  0  0  0  0  0  0  0  0  0  0
   -2.0571   -4.9351  -18.1725 O   0  0  0  0  0  0  0  0  0  0  0  0
   -0.1390   -4.3013  -16.9209 C   0  0  0  0  0  0  0  0  0  0  0  0
   -1.0367   -3.4502  -16.1077 C   0  0  0  0  0  0  0  0  0  0  0  0
   -0.5825   -2.8838  -14.8627 C   0  0  0  0  0  0  0  0  0  0  0  0
   -1.3893   -2.0308  -13.9819 C   0  0  0  0  0  0  0  0  0  0  0  0
   -0.7154   -1.5522  -12.7304 C   0  0  0  0  0  0  0  0  0  0  0  0
   -1.4810   -0.6083  -11.8786 C   0  0  0  0  0  0  0  0  0  0  0  0
   -0.9895   -0.3171  -10.5147 C   0  0  0  0  0  0  0  0  0  0  0  0
   -0.6880   -1.5584   -9.8949 F   0  0  0  0  0  0  0  0  0  0  0  0
    0.2639    0.3226  -10.5420 F   0  0  0  0  0  0  0  0  0  0  0  0
   -1.8103    0.3873   -9.7005 F   0  0  0  0  0  0  0  0  0  0  0  0
   -2.7735   -1.1604  -11.7551 F   0  0  0  0  0  0  0  0  0  0  0  0
   -1.7054    0.5667  -12.6159 F   0  0  0  0  0  0  0  0  0  0  0  0
   -0.3856   -2.6372  -11.8932 F   0  0  0  0  0  0  0  0  0  0  0  0
    0.5514   -0.9885  -12.9946 F   0  0  0  0  0  0  0  0  0  0  0  0
   -2.1203   -1.0517  -14.5985 F   0  0  0  0  0  0  0  0  0  0  0  0
   -2.4096   -2.8988  -13.4954 F   0  0  0  0  0  0  0  0  0  0  0  0
    0.5893   -2.1340  -15.1087 F   0  0  0  0  0  0  0  0  0  0  0  0
   -0.0725   -3.9266  -14.0600 F   0  0  0  0  0  0  0  0  0  0  0  0
   -2.2513   -4.0929  -16.0036 F   0  0  0  0  0  0  0  0  0  0  0  0
   -1.3522   -2.3743  -16.9899 F   0  0  0  0  0  0  0  0  0  0  0  0
    1.1105   -3.8459  -17.1665 F   0  0  0  0  0  0  0  0  0  0  0  0
    0.0303   -5.4716  -16.1782 F   0  0  0  0  0  0  0  0  0  0  0  0
   -0.0950   -5.0790  -19.3275 O   0  0  0  0  0  0  0  0  0  0  0  0
  1  2  2  0
  1  3  1  0
  3  4  1  0
  4  5  1  0
  5  6  1  0
  6  7  1  0
  7  8  1  0
  8  9  1  0
  9 10  1  0
  9 11  1  0
  9 12  1  0
  8 13  1  0
  8 14  1  0
  7 15  1  0
  7 16  1  0
  6 17  1  0
  6 18  1  0
  5 19  1  0
  5 20  1  0
  4 21  1  0
  4 22  1  0
  3 23  1  0
  3 24  1  0
  1 25  1  0
M  END
$$$$
