
     RDKit          3D

 25 24  0  0  0  0  0  0  0  0999 V2000
   -0.3278   -4.6477  -15.7975 C   0  0  0  0  0  0  0  0  0  0  0  0
    0.8540   -4.8215  -16.2508 O   0  0  0  0  0  0  0  0  0  0  0  0
   -0.5950   -5.1194  -14.3910 C   0  0  0  0  0  0  0  0  0  0  0  0
   -0.9795   -4.0188  -13.4787 C   0  0  0  0  0  0  0  0  0  0  0  0
   -1.3340   -4.2912  -12.1085 C   0  0  0  0  0  0  0  0  0  0  0  0
   -1.4092   -3.2850  -11.0426 C   0  0  0  0  0  0  0  0  0  0  0  0
   -1.9090   -3.7690   -9.7138 C   0  0  0  0  0  0  0  0  0  0  0  0
   -2.2285   -2.7313   -8.7020 C   0  0  0  0  0  0  0  0  0  0  0  0
   -2.5693   -3.1553   -7.3270 C   0  0  0  0  0  0  0  0  0  0  0  0
   -1.3652   -3.5625   -6.6943 F   0  0  0  0  0  0  0  0  0  0  0  0
   -2.9763   -2.0651   -6.5352 F   0  0  0  0  0  0  0  0  0  0  0  0
   -3.4852   -4.1435   -7.1954 F   0  0  0  0  0  0  0  0  0  0  0  0
   -3.3348   -2.0205   -9.2134 F   0  0  0  0  0  0  0  0  0  0  0  0
   -1.2006   -1.7734   -8.7146 F   0  0  0  0  0  0  0  0  0  0  0  0
   -3.0886   -4.5251   -9.8679 F   0  0  0  0  0  0  0  0  0  0  0  0
   -1.0318   -4.7077   -9.1293 F   0  0  0  0  0  0  0  0  0  0  0  0
   -0.3336   -2.4461  -10.9313 F   0  0  0  0  0  0  0  0  0  0  0  0
   -2.4344   -2.3946  -11.4756 F   0  0  0  0  0  0  0  0  0  0  0  0
   -0.4600   -5.2797  -11.6039 F   0  0  0  0  0  0  0  0  0  0  0  0
   -2.5628   -4.9854  -12.0970 F   0  0  0  0  0  0  0  0  0  0  0  0
   -1.8983   -3.2271  -14.1328 F   0  0  0  0  0  0  0  0  0  0  0  0
    0.1752   -3.1811  -13.4748 F   0  0  0  0  0  0  0  0  0  0  0  0
    0.3720   -5.9710  -13.9798 F   0  0  0  0  0  0  0  0  0  0  0  0
   -1.7443   -5.9001  -14.5301 F   0  0  0  0  0  0  0  0  0  0  0  0
   -1.2697   -4.0585  -16.5859 O   0  0  0  0  0  0  0  0  0  0  0  0
  1  2  2  0
  1  3  1  0
  3  4  1  0
  4  5  1  0
  5  6  1  0
  6  7  1  0
  7  8  1  0
  8  9  1  0
  9 10  1  0
  9 11  1  0
  9 12  1  0
  8 13  1  0
  8 14  1  0
  7 15  1  0
  7 16  1  0
  6 17  1  0
  6 18  1  0
  5 19  1  0
  5 20  1  0
  4 21  1  0
  4 22  1  0
  3 23  1  0
  3 24  1  0
  1 25  1  0
M  END
$$$$
