
     RDKit          3D

 25 24  0  0  0  0  0  0  0  0999 V2000
   -1.0084   -3.2812  -18.6859 C   0  0  0  0  0  0  0  0  0  0  0  0
    0.1671   -2.7970  -18.8138 O   0  0  0  0  0  0  0  0  0  0  0  0
   -1.8014   -2.8380  -17.4831 C   0  0  0  0  0  0  0  0  0  0  0  0
   -0.9617   -2.2000  -16.4440 C   0  0  0  0  0  0  0  0  0  0  0  0
   -1.5229   -1.8386  -15.1666 C   0  0  0  0  0  0  0  0  0  0  0  0
   -0.7509   -1.3645  -14.0119 C   0  0  0  0  0  0  0  0  0  0  0  0
   -1.5486   -0.9517  -12.8107 C   0  0  0  0  0  0  0  0  0  0  0  0
   -0.7915   -0.7079  -11.5576 C   0  0  0  0  0  0  0  0  0  0  0  0
   -1.5167   -0.2046  -10.3713 C   0  0  0  0  0  0  0  0  0  0  0  0
   -2.4195   -1.2201   -9.9594 F   0  0  0  0  0  0  0  0  0  0  0  0
   -0.6652   -0.0833   -9.2572 F   0  0  0  0  0  0  0  0  0  0  0  0
   -2.2016    0.9546  -10.5129 F   0  0  0  0  0  0  0  0  0  0  0  0
    0.1997    0.2418  -11.8835 F   0  0  0  0  0  0  0  0  0  0  0  0
   -0.0441   -1.8609  -11.2638 F   0  0  0  0  0  0  0  0  0  0  0  0
   -2.2560    0.2406  -13.0651 F   0  0  0  0  0  0  0  0  0  0  0  0
   -2.5927   -1.8598  -12.5322 F   0  0  0  0  0  0  0  0  0  0  0  0
    0.3562   -2.1004  -13.6863 F   0  0  0  0  0  0  0  0  0  0  0  0
   -0.1714   -0.1414  -14.4586 F   0  0  0  0  0  0  0  0  0  0  0  0
   -2.2649   -2.9347  -14.6730 F   0  0  0  0  0  0  0  0  0  0  0  0
   -2.5485   -0.8935  -15.3833 F   0  0  0  0  0  0  0  0  0  0  0  0
   -0.2553   -1.1771  -17.0386 F   0  0  0  0  0  0  0  0  0  0  0  0
    0.0629   -3.1660  -16.2155 F   0  0  0  0  0  0  0  0  0  0  0  0
   -2.6607   -3.8066  -17.0926 F   0  0  0  0  0  0  0  0  0  0  0  0
   -2.6017   -1.8121  -17.9898 F   0  0  0  0  0  0  0  0  0  0  0  0
   -1.4803   -4.1544  -19.6190 O   0  0  0  0  0  0  0  0  0  0  0  0
  1  2  2  0
  1  3  1  0
  3  4  1  0
  4  5  1  0
  5  6  1  0
  6  7  1  0
  7  8  1  0
  8  9  1  0
  9 10  1  0
  9 11  1  0
  9 12  1  0
  8 13  1  0
  8 14  1  0
  7 15  1  0
  7 16  1  0
  6 17  1  0
  6 18  1  0
  5 19  1  0
  5 20  1  0
  4 21  1  0
  4 22  1  0
  3 23  1  0
  3 24  1  0
  1 25  1  0
M  END
$$$$
