
     RDKit          3D

 25 24  0  0  0  0  0  0  0  0999 V2000
   -0.0206   -4.6630  -16.1637 C   0  0  0  0  0  0  0  0  0  0  0  0
   -0.9777   -4.4378  -16.9796 O   0  0  0  0  0  0  0  0  0  0  0  0
   -0.3972   -5.1557  -14.7898 C   0  0  0  0  0  0  0  0  0  0  0  0
   -0.6925   -4.0548  -13.8452 C   0  0  0  0  0  0  0  0  0  0  0  0
   -1.1355   -4.3380  -12.5032 C   0  0  0  0  0  0  0  0  0  0  0  0
   -1.2847   -3.3397  -11.4377 C   0  0  0  0  0  0  0  0  0  0  0  0
   -1.9452   -3.8148  -10.1777 C   0  0  0  0  0  0  0  0  0  0  0  0
   -2.1700   -2.8003   -9.1180 C   0  0  0  0  0  0  0  0  0  0  0  0
   -2.5117   -3.2563   -7.7534 C   0  0  0  0  0  0  0  0  0  0  0  0
   -2.6865   -2.1004   -6.9476 F   0  0  0  0  0  0  0  0  0  0  0  0
   -3.7856   -3.8532   -7.7111 F   0  0  0  0  0  0  0  0  0  0  0  0
   -1.6323   -4.0840   -7.1414 F   0  0  0  0  0  0  0  0  0  0  0  0
   -3.2337   -1.9936   -9.5746 F   0  0  0  0  0  0  0  0  0  0  0  0
   -1.0777   -1.9164   -9.1162 F   0  0  0  0  0  0  0  0  0  0  0  0
   -3.2140   -4.3632  -10.4537 F   0  0  0  0  0  0  0  0  0  0  0  0
   -1.2672   -4.9136   -9.6075 F   0  0  0  0  0  0  0  0  0  0  0  0
   -0.1940   -2.5481  -11.1991 F   0  0  0  0  0  0  0  0  0  0  0  0
   -2.2194   -2.4027  -11.9665 F   0  0  0  0  0  0  0  0  0  0  0  0
   -0.2927   -5.3271  -11.9489 F   0  0  0  0  0  0  0  0  0  0  0  0
   -2.3596   -5.0366  -12.5775 F   0  0  0  0  0  0  0  0  0  0  0  0
   -1.4849   -3.1361  -14.4987 F   0  0  0  0  0  0  0  0  0  0  0  0
    0.5494   -3.3580  -13.7593 F   0  0  0  0  0  0  0  0  0  0  0  0
    0.4496   -6.1277  -14.3809 F   0  0  0  0  0  0  0  0  0  0  0  0
   -1.6206   -5.7936  -15.0048 F   0  0  0  0  0  0  0  0  0  0  0  0
    1.2651   -4.4530  -16.5622 O   0  0  0  0  0  0  0  0  0  0  0  0
  1  2  2  0
  1  3  1  0
  3  4  1  0
  4  5  1  0
  5  6  1  0
  6  7  1  0
  7  8  1  0
  8  9  1  0
  9 10  1  0
  9 11  1  0
  9 12  1  0
  8 13  1  0
  8 14  1  0
  7 15  1  0
  7 16  1  0
  6 17  1  0
  6 18  1  0
  5 19  1  0
  5 20  1  0
  4 21  1  0
  4 22  1  0
  3 23  1  0
  3 24  1  0
  1 25  1  0
M  END
$$$$
