
     RDKit          3D

 25 24  0  0  0  0  0  0  0  0999 V2000
   -0.8944   -3.9555  -18.4157 C   0  0  0  0  0  0  0  0  0  0  0  0
   -1.6239   -3.1905  -19.1333 O   0  0  0  0  0  0  0  0  0  0  0  0
   -1.2482   -4.0609  -16.9542 C   0  0  0  0  0  0  0  0  0  0  0  0
   -0.6796   -2.9601  -16.1441 C   0  0  0  0  0  0  0  0  0  0  0  0
   -0.8437   -2.9418  -14.7123 C   0  0  0  0  0  0  0  0  0  0  0  0
   -0.3367   -1.8924  -13.8202 C   0  0  0  0  0  0  0  0  0  0  0  0
   -1.0262   -1.7649  -12.4944 C   0  0  0  0  0  0  0  0  0  0  0  0
   -0.5297   -0.7044  -11.5825 C   0  0  0  0  0  0  0  0  0  0  0  0
   -1.2318   -0.4779  -10.3010 C   0  0  0  0  0  0  0  0  0  0  0  0
   -2.5459   -0.0350  -10.6057 F   0  0  0  0  0  0  0  0  0  0  0  0
   -1.4677   -1.6867   -9.6196 F   0  0  0  0  0  0  0  0  0  0  0  0
   -0.6681    0.3968   -9.4350 F   0  0  0  0  0  0  0  0  0  0  0  0
   -0.5912    0.4980  -12.3183 F   0  0  0  0  0  0  0  0  0  0  0  0
    0.8501   -0.8943  -11.3969 F   0  0  0  0  0  0  0  0  0  0  0  0
   -2.4004   -1.5038  -12.6679 F   0  0  0  0  0  0  0  0  0  0  0  0
   -1.0456   -2.9874  -11.7891 F   0  0  0  0  0  0  0  0  0  0  0  0
    1.0249   -1.7936  -13.7218 F   0  0  0  0  0  0  0  0  0  0  0  0
   -0.6734   -0.6774  -14.4848 F   0  0  0  0  0  0  0  0  0  0  0  0
   -0.3209   -4.1426  -14.1826 F   0  0  0  0  0  0  0  0  0  0  0  0
   -2.2163   -3.0927  -14.4204 F   0  0  0  0  0  0  0  0  0  0  0  0
   -1.0212   -1.7692  -16.7475 F   0  0  0  0  0  0  0  0  0  0  0  0
    0.7170   -3.0376  -16.4246 F   0  0  0  0  0  0  0  0  0  0  0  0
   -1.0742   -5.3263  -16.5096 F   0  0  0  0  0  0  0  0  0  0  0  0
   -2.6284   -3.8492  -16.9448 F   0  0  0  0  0  0  0  0  0  0  0  0
    0.1444   -4.6247  -18.9892 O   0  0  0  0  0  0  0  0  0  0  0  0
  1  2  2  0
  1  3  1  0
  3  4  1  0
  4  5  1  0
  5  6  1  0
  6  7  1  0
  7  8  1  0
  8  9  1  0
  9 10  1  0
  9 11  1  0
  9 12  1  0
  8 13  1  0
  8 14  1  0
  7 15  1  0
  7 16  1  0
  6 17  1  0
  6 18  1  0
  5 19  1  0
  5 20  1  0
  4 21  1  0
  4 22  1  0
  3 23  1  0
  3 24  1  0
  1 25  1  0
M  END
$$$$
