
     RDKit          3D

  5  4  0  0  0  0  0  0  0  0999 V2000
   14.4106   -1.2709  -10.6425 C   0  0  0  0  0  0  0  0  0  0  0  0
   15.5318   -1.9079   -9.9315 C   0  0  0  0  0  0  0  0  0  0  0  0
   15.7621   -3.1559  -10.1117 O   0  0  0  0  0  0  0  0  0  0  0  0
   16.3729   -1.2270   -9.0687 O   0  0  0  0  0  0  0  0  0  0  0  0
   13.6559   -2.2892  -11.1909 F   0  0  0  0  0  0  0  0  0  0  0  0
  1  2  1  0
  2  3  2  0
  2  4  1  0
  1  5  1  0
M  END
$$$$
