
     RDKit          3D

  5  4  0  0  0  0  0  0  0  0999 V2000
   15.0744    5.6969    1.4881 C   0  0  0  0  0  0  0  0  0  0  0  0
   15.6428    6.4250    0.3414 C   0  0  0  0  0  0  0  0  0  0  0  0
   15.8468    7.6869    0.4370 O   0  0  0  0  0  0  0  0  0  0  0  0
   15.9836    5.8175   -0.8546 O   0  0  0  0  0  0  0  0  0  0  0  0
   14.9738    6.6027    2.5257 F   0  0  0  0  0  0  0  0  0  0  0  0
  1  2  1  0
  2  3  2  0
  2  4  1  0
  1  5  1  0
M  END
$$$$
