
     RDKit          3D

  5  4  0  0  0  0  0  0  0  0999 V2000
   -8.3240    6.9721  -12.9896 C   0  0  0  0  0  0  0  0  0  0  0  0
   -8.0297    7.9045  -11.8886 C   0  0  0  0  0  0  0  0  0  0  0  0
   -8.9962    8.3873  -11.1989 O   0  0  0  0  0  0  0  0  0  0  0  0
   -6.7477    8.2940  -11.5413 O   0  0  0  0  0  0  0  0  0  0  0  0
   -7.1632    6.8469  -13.7273 F   0  0  0  0  0  0  0  0  0  0  0  0
  1  2  1  0
  2  3  2  0
  2  4  1  0
  1  5  1  0
M  END
$$$$
