
     RDKit          3D

 13 14  0  0  0  0  0  0  0  0999 V2000
    8.4201  -46.6561   27.6495 C   0  0  0  0  0  0  0  0  0  0  0  0
    8.8129  -47.9436   27.3463 C   0  0  0  0  0  0  0  0  0  0  0  0
    9.7244  -48.6087   28.1501 C   0  0  0  0  0  0  0  0  0  0  0  0
   10.2294  -47.9579   29.2571 C   0  0  0  0  0  0  0  0  0  0  0  0
   11.1385  -48.5848   30.0826 C   0  0  0  0  0  0  0  0  0  0  0  0
   11.5304  -49.8719   29.7785 C   0  0  0  0  0  0  0  0  0  0  0  0
   11.0531  -50.5632   28.6827 C   0  0  0  0  0  0  0  0  0  0  0  0
   10.1319  -49.8977   27.8660 C   0  0  0  0  0  0  0  0  0  0  0  0
    9.4706  -50.7104   26.4421 Cl  0  0  0  0  0  0  0  0  0  0  0  0
   12.9137  -50.8226   31.0366 I   0  0  0  0  0  0  0  0  0  0  0  0
   11.6653  -47.9603   31.2019 O   0  0  0  0  0  0  0  0  0  0  0  0
    9.8461  -46.6895   29.5607 N   0  0  0  0  0  0  0  0  0  0  0  0
    8.9497  -46.0336   28.7715 C   0  0  0  0  0  0  0  0  0  0  0  0
  1  2  1  0
  2  3  2  0
  3  4  1  0
  4  5  1  0
  5  6  2  0
  6  7  1  0
  7  8  2  0
  8  9  1  0
  6 10  1  0
  5 11  1  0
  4 12  2  0
 12 13  1  0
 13  1  2  0
  8  3  1  0
M  END
$$$$
