
     RDKit          3D

 13 14  0  0  0  0  0  0  0  0999 V2000
-1762.5764  389.7894-3555.4978 C   0  0  0  0  0  0  0  0  0  0  0  0
-1761.8810  389.2108-3556.5400 C   0  0  0  0  0  0  0  0  0  0  0  0
-1762.3655  389.2855-3557.8354 C   0  0  0  0  0  0  0  0  0  0  0  0
-1763.5540  389.9491-3558.0610 C   0  0  0  0  0  0  0  0  0  0  0  0
-1764.0702  390.0459-3559.3362 C   0  0  0  0  0  0  0  0  0  0  0  0
-1763.3744  389.4670-3560.3772 C   0  0  0  0  0  0  0  0  0  0  0  0
-1762.1818  388.7935-3560.2007 C   0  0  0  0  0  0  0  0  0  0  0  0
-1761.6865  388.7141-3558.8940 C   0  0  0  0  0  0  0  0  0  0  0  0
-1760.1656  387.8691-3558.5796 Cl  0  0  0  0  0  0  0  0  0  0  0  0
-1764.1619  389.6164-3562.3152 I   0  0  0  0  0  0  0  0  0  0  0  0
-1765.2610  390.7047-3559.5974 O   0  0  0  0  0  0  0  0  0  0  0  0
-1764.2433  390.5208-3557.0378 N   0  0  0  0  0  0  0  0  0  0  0  0
-1763.7687  390.4486-3555.7629 C   0  0  0  0  0  0  0  0  0  0  0  0
  1  2  1  0
  2  3  2  0
  3  4  1  0
  4  5  1  0
  5  6  2  0
  6  7  1  0
  7  8  2  0
  8  9  1  0
  6 10  1  0
  5 11  1  0
  4 12  2  0
 12 13  1  0
 13  1  2  0
  8  3  1  0
M  END
$$$$
