
     RDKit          3D

 13 14  0  0  0  0  0  0  0  0999 V2000
   12.4707  -52.0055   32.4435 C   0  0  0  0  0  0  0  0  0  0  0  0
   11.9200  -53.2332   32.1377 C   0  0  0  0  0  0  0  0  0  0  0  0
   12.2778  -53.8945   30.9741 C   0  0  0  0  0  0  0  0  0  0  0  0
   13.1940  -53.3009   30.1301 C   0  0  0  0  0  0  0  0  0  0  0  0
   13.5765  -53.9262   28.9624 C   0  0  0  0  0  0  0  0  0  0  0  0
   13.0254  -55.1533   28.6577 C   0  0  0  0  0  0  0  0  0  0  0  0
   12.1057  -55.7862   29.4704 C   0  0  0  0  0  0  0  0  0  0  0  0
   11.7394  -55.1241   30.6477 C   0  0  0  0  0  0  0  0  0  0  0  0
   10.5676  -55.8641   31.7450 Cl  0  0  0  0  0  0  0  0  0  0  0  0
   13.6097  -56.1017   26.8803 I   0  0  0  0  0  0  0  0  0  0  0  0
   14.4938  -53.3582   28.0927 O   0  0  0  0  0  0  0  0  0  0  0  0
   13.7398  -52.0916   30.4262 N   0  0  0  0  0  0  0  0  0  0  0  0
   13.3893  -51.4395   31.5701 C   0  0  0  0  0  0  0  0  0  0  0  0
  1  2  1  0
  2  3  2  0
  3  4  1  0
  4  5  1  0
  5  6  2  0
  6  7  1  0
  7  8  2  0
  8  9  1  0
  6 10  1  0
  5 11  1  0
  4 12  2  0
 12 13  1  0
 13  1  2  0
  8  3  1  0
M  END
$$$$
