
     RDKit          3D

 13 14  0  0  0  0  0  0  0  0999 V2000
   12.8462  -43.5108   21.6723 C   0  0  0  0  0  0  0  0  0  0  0  0
   11.8127  -43.4703   22.5857 C   0  0  0  0  0  0  0  0  0  0  0  0
   11.7692  -44.3694   23.6389 C   0  0  0  0  0  0  0  0  0  0  0  0
   12.7785  -45.3033   23.7543 C   0  0  0  0  0  0  0  0  0  0  0  0
   12.7720  -46.2156   24.7880 C   0  0  0  0  0  0  0  0  0  0  0  0
   11.7385  -46.1743   25.7005 C   0  0  0  0  0  0  0  0  0  0  0  0
   10.7073  -45.2589   25.6264 C   0  0  0  0  0  0  0  0  0  0  0  0
   10.7446  -44.3475   24.5651 C   0  0  0  0  0  0  0  0  0  0  0  0
    9.4631  -43.1415   24.3957 Cl  0  0  0  0  0  0  0  0  0  0  0  0
   11.7319  -47.5638   27.2719 I   0  0  0  0  0  0  0  0  0  0  0  0
   13.7696  -47.1665   24.9334 O   0  0  0  0  0  0  0  0  0  0  0  0
   13.7990  -45.3478   22.8574 N   0  0  0  0  0  0  0  0  0  0  0  0
   13.8437  -44.4645   21.8209 C   0  0  0  0  0  0  0  0  0  0  0  0
  1  2  1  0
  2  3  2  0
  3  4  1  0
  4  5  1  0
  5  6  2  0
  6  7  1  0
  7  8  2  0
  8  9  1  0
  6 10  1  0
  5 11  1  0
  4 12  2  0
 12 13  1  0
 13  1  2  0
  8  3  1  0
M  END
$$$$
