
     RDKit          3D

 13 14  0  0  0  0  0  0  0  0999 V2000
    9.0491  -51.6668   30.0967 C   0  0  0  0  0  0  0  0  0  0  0  0
    8.6848  -50.9922   28.9495 C   0  0  0  0  0  0  0  0  0  0  0  0
    7.8162  -49.9148   29.0128 C   0  0  0  0  0  0  0  0  0  0  0  0
    7.3248  -49.5320   30.2441 C   0  0  0  0  0  0  0  0  0  0  0  0
    6.4580  -48.4649   30.3500 C   0  0  0  0  0  0  0  0  0  0  0  0
    6.0946  -47.7913   29.2025 C   0  0  0  0  0  0  0  0  0  0  0  0
    6.5599  -48.1372   27.9493 C   0  0  0  0  0  0  0  0  0  0  0  0
    7.4378  -49.2247   27.8775 C   0  0  0  0  0  0  0  0  0  0  0  0
    8.0809  -49.7343   26.3117 Cl  0  0  0  0  0  0  0  0  0  0  0  0
    4.7758  -46.1685   29.3675 I   0  0  0  0  0  0  0  0  0  0  0  0
    5.9460  -48.0542   31.5705 O   0  0  0  0  0  0  0  0  0  0  0  0
    7.6802  -50.1928   31.3776 N   0  0  0  0  0  0  0  0  0  0  0  0
    8.5343  -51.2527   31.3175 C   0  0  0  0  0  0  0  0  0  0  0  0
  1  2  1  0
  2  3  2  0
  3  4  1  0
  4  5  1  0
  5  6  2  0
  6  7  1  0
  7  8  2  0
  8  9  1  0
  6 10  1  0
  5 11  1  0
  4 12  2  0
 12 13  1  0
 13  1  2  0
  8  3  1  0
M  END
$$$$
