
     RDKit          3D

 13 14  0  0  0  0  0  0  0  0999 V2000
   -0.2018  -49.0212   35.0683 C   0  0  0  0  0  0  0  0  0  0  0  0
    0.1887  -49.9982   34.1756 C   0  0  0  0  0  0  0  0  0  0  0  0
    1.4001  -49.8999   33.5106 C   0  0  0  0  0  0  0  0  0  0  0  0
    2.2052  -48.8072   33.7594 C   0  0  0  0  0  0  0  0  0  0  0  0
    3.4183  -48.6720   33.1182 C   0  0  0  0  0  0  0  0  0  0  0  0
    3.8077  -49.6493   32.2261 C   0  0  0  0  0  0  0  0  0  0  0  0
    3.0366  -50.7597   31.9449 C   0  0  0  0  0  0  0  0  0  0  0  0
    1.8115  -50.8659   32.6129 C   0  0  0  0  0  0  0  0  0  0  0  0
    0.7625  -52.2564   32.3110 Cl  0  0  0  0  0  0  0  0  0  0  0  0
    5.6539  -49.4403   31.2524 I   0  0  0  0  0  0  0  0  0  0  0  0
    4.2509  -47.5877   33.3448 O   0  0  0  0  0  0  0  0  0  0  0  0
    1.8257  -47.8416   34.6377 N   0  0  0  0  0  0  0  0  0  0  0  0
    0.6347  -47.9364   35.2928 C   0  0  0  0  0  0  0  0  0  0  0  0
  1  2  1  0
  2  3  2  0
  3  4  1  0
  4  5  1  0
  5  6  2  0
  6  7  1  0
  7  8  2  0
  8  9  1  0
  6 10  1  0
  5 11  1  0
  4 12  2  0
 12 13  1  0
 13  1  2  0
  8  3  1  0
M  END
$$$$
