
     RDKit          3D

 13 14  0  0  0  0  0  0  0  0999 V2000
    8.2699  -43.2533    0.9851 C   0  0  0  0  0  0  0  0  0  0  0  0
    6.9464  -43.5463    1.2434 C   0  0  0  0  0  0  0  0  0  0  0  0
    6.1914  -42.7246    2.0644 C   0  0  0  0  0  0  0  0  0  0  0  0
    6.7895  -41.6105    2.6167 C   0  0  0  0  0  0  0  0  0  0  0  0
    6.0728  -40.7673    3.4391 C   0  0  0  0  0  0  0  0  0  0  0  0
    4.7499  -41.0611    3.6966 C   0  0  0  0  0  0  0  0  0  0  0  0
    4.1086  -42.1635    3.1672 C   0  0  0  0  0  0  0  0  0  0  0  0
    4.8651  -42.9982    2.3368 C   0  0  0  0  0  0  0  0  0  0  0  0
    4.1213  -44.4315    1.6175 Cl  0  0  0  0  0  0  0  0  0  0  0  0
    3.6625  -39.7762    4.9482 I   0  0  0  0  0  0  0  0  0  0  0  0
    6.6424  -39.6404    4.0099 O   0  0  0  0  0  0  0  0  0  0  0  0
    8.0929  -41.3169    2.3658 N   0  0  0  0  0  0  0  0  0  0  0  0
    8.8373  -42.1237    1.5585 C   0  0  0  0  0  0  0  0  0  0  0  0
  1  2  1  0
  2  3  2  0
  3  4  1  0
  4  5  1  0
  5  6  2  0
  6  7  1  0
  7  8  2  0
  8  9  1  0
  6 10  1  0
  5 11  1  0
  4 12  2  0
 12 13  1  0
 13  1  2  0
  8  3  1  0
M  END
$$$$
