
     RDKit          3D

  4  3  0  0  0  0  0  0  0  0999 V2000
   -7.2725  -14.0921  -10.4208 C   0  0  0  0  0  0  0  0  0  0  0  0
   -6.2313  -13.1685  -10.9979 C   0  0  0  0  0  0  0  0  0  0  0  0
   -6.7419  -12.6722  -12.6475 Cl  0  0  0  0  0  0  0  0  0  0  0  0
   -7.0211  -14.3687   -8.6874 Cl  0  0  0  0  0  0  0  0  0  0  0  0
  1  2  1  0
  2  3  1  0
  1  4  1  0
M  END
$$$$
