
     RDKit          3D

  4  3  0  0  0  0  0  0  0  0999 V2000
   -9.0037   -2.7381   -3.2546 C   0  0  0  0  0  0  0  0  0  0  0  0
   -8.9284   -1.4809   -4.0815 C   0  0  0  0  0  0  0  0  0  0  0  0
   -8.4769   -1.9165   -5.7651 Cl  0  0  0  0  0  0  0  0  0  0  0  0
   -8.7805   -2.4059   -1.5270 Cl  0  0  0  0  0  0  0  0  0  0  0  0
  1  2  1  0
  2  3  1  0
  1  4  1  0
M  END
$$$$
