
     RDKit          3D

  4  3  0  0  0  0  0  0  0  0999 V2000
   -7.3341   -1.2609    0.8099 C   0  0  0  0  0  0  0  0  0  0  0  0
   -6.0728   -0.5898    1.2880 C   0  0  0  0  0  0  0  0  0  0  0  0
   -5.6764    0.7658    0.1773 Cl  0  0  0  0  0  0  0  0  0  0  0  0
   -7.7590   -2.6591    1.8144 Cl  0  0  0  0  0  0  0  0  0  0  0  0
  1  2  1  0
  2  3  1  0
  1  4  1  0
M  END
$$$$
