
     RDKit          3D

  4  3  0  0  0  0  0  0  0  0999 V2000
   -6.0298  -12.8700  -10.8040 C   0  0  0  0  0  0  0  0  0  0  0  0
   -7.3941  -13.5035  -10.8901 C   0  0  0  0  0  0  0  0  0  0  0  0
   -7.6997  -14.0016  -12.5891 Cl  0  0  0  0  0  0  0  0  0  0  0  0
   -5.6618  -12.3166   -9.1600 Cl  0  0  0  0  0  0  0  0  0  0  0  0
  1  2  1  0
  2  3  1  0
  1  4  1  0
M  END
$$$$
