
     RDKit          3D

  5  4  0  0  0  0  0  0  0  0999 V2000
   -4.1461   12.8582    0.0493 C   0  0  0  0  0  0  0  0  0  0  0  0
   -5.1279   13.9950    0.1385 C   0  0  0  0  0  0  0  0  0  0  0  0
   -4.7632   15.1668    0.4436 O   0  0  0  0  0  0  0  0  0  0  0  0
   -6.4703   13.7620   -0.1211 O   0  0  0  0  0  0  0  0  0  0  0  0
   -2.8941   13.3650    0.3257 F   0  0  0  0  0  0  0  0  0  0  0  0
  1  2  1  0
  2  3  2  0
  2  4  1  0
  1  5  1  0
M  END
$$$$
