
     RDKit          3D

  5  4  0  0  0  0  0  0  0  0999 V2000
  -11.1306    6.7433   -2.5014 C   0  0  0  0  0  0  0  0  0  0  0  0
  -11.7097    7.2812   -3.7820 C   0  0  0  0  0  0  0  0  0  0  0  0
  -12.9422    7.1830   -4.0477 O   0  0  0  0  0  0  0  0  0  0  0  0
  -10.8783    7.9047   -4.7004 O   0  0  0  0  0  0  0  0  0  0  0  0
   -9.9595    7.4273   -2.2531 F   0  0  0  0  0  0  0  0  0  0  0  0
  1  2  1  0
  2  3  2  0
  2  4  1  0
  1  5  1  0
M  END
$$$$
