
     RDKit          3D

 29 28  0  0  0  0  0  0  0  0999 V2000
  -10.9172    5.2426   -1.2171 C   0  0  0  0  0  0  0  0  0  0  0  0
  -11.8618    6.3755   -1.3719 C   0  0  0  0  0  0  0  0  0  0  0  0
  -11.2261    7.6917   -0.8504 C   0  0  0  0  0  0  0  0  0  0  0  0
  -12.3518    8.7022   -0.9435 C   0  0  0  0  0  0  0  0  0  0  0  0
  -12.0532    9.9549   -0.1603 C   0  0  0  0  0  0  0  0  0  0  0  0
  -10.9438   10.5977   -0.6731 F   0  0  0  0  0  0  0  0  0  0  0  0
  -11.7990    9.7046    1.1722 F   0  0  0  0  0  0  0  0  0  0  0  0
  -13.4634   11.0308   -0.2995 S   0  0  0  0  0  0  0  0  0  0  0  0
  -13.7126   11.4347   -1.7166 O   0  0  0  0  0  0  0  0  0  0  0  0
  -14.7053   10.3867    0.2119 O   0  0  0  0  0  0  0  0  0  0  0  0
  -13.1775   12.3745    0.6817 O   0  0  0  0  0  0  0  0  0  0  0  0
  -12.5011    9.0488   -2.2637 F   0  0  0  0  0  0  0  0  0  0  0  0
  -13.4995    8.0841   -0.5547 F   0  0  0  0  0  0  0  0  0  0  0  0
  -10.1978    8.0445   -1.6776 F   0  0  0  0  0  0  0  0  0  0  0  0
  -10.8119    7.5414    0.4642 F   0  0  0  0  0  0  0  0  0  0  0  0
  -13.0679    6.1322   -0.7606 F   0  0  0  0  0  0  0  0  0  0  0  0
  -12.1025    6.6753   -2.7168 F   0  0  0  0  0  0  0  0  0  0  0  0
  -11.2408    3.9912   -1.9302 C   0  0  0  0  0  0  0  0  0  0  0  0
  -10.4859    2.7576   -1.5286 C   0  0  0  0  0  0  0  0  0  0  0  0
  -11.0828    1.6333   -2.4127 C   0  0  0  0  0  0  0  0  0  0  0  0
  -10.6181    0.4472   -1.9233 F   0  0  0  0  0  0  0  0  0  0  0  0
  -12.4543    1.7470   -2.3587 F   0  0  0  0  0  0  0  0  0  0  0  0
  -10.6489    1.8301   -3.7034 F   0  0  0  0  0  0  0  0  0  0  0  0
  -10.6971    2.4238   -0.2237 F   0  0  0  0  0  0  0  0  0  0  0  0
   -9.1333    2.8040   -1.8237 F   0  0  0  0  0  0  0  0  0  0  0  0
  -11.1580    4.1461   -3.3284 F   0  0  0  0  0  0  0  0  0  0  0  0
  -12.5997    3.6748   -1.7277 F   0  0  0  0  0  0  0  0  0  0  0  0
   -9.6783    5.7111   -1.6859 F   0  0  0  0  0  0  0  0  0  0  0  0
  -10.6867    4.9423    0.1275 F   0  0  0  0  0  0  0  0  0  0  0  0
  1  2  1  0
  2  3  1  0
  3  4  1  0
  4  5  1  0
  5  6  1  0
  5  7  1  0
  5  8  1  0
  8  9  2  0
  8 10  2  0
  8 11  1  0
  4 12  1  0
  4 13  1  0
  3 14  1  0
  3 15  1  0
  2 16  1  0
  2 17  1  0
  1 18  1  0
 18 19  1  0
 19 20  1  0
 20 21  1  0
 20 22  1  0
 20 23  1  0
 19 24  1  0
 19 25  1  0
 18 26  1  0
 18 27  1  0
  1 28  1  0
  1 29  1  0
M  END
$$$$
