
     RDKit          3D

 29 28  0  0  0  0  0  0  0  0999 V2000
  -11.8158    2.6343   -0.7361 C   0  0  0  0  0  0  0  0  0  0  0  0
  -11.3794    3.6677   -1.7063 C   0  0  0  0  0  0  0  0  0  0  0  0
  -11.3265    3.0809   -3.1421 C   0  0  0  0  0  0  0  0  0  0  0  0
  -10.9081    4.2572   -4.0014 C   0  0  0  0  0  0  0  0  0  0  0  0
  -10.6289    3.8466   -5.4245 C   0  0  0  0  0  0  0  0  0  0  0  0
  -11.5748    2.9424   -5.8657 F   0  0  0  0  0  0  0  0  0  0  0  0
   -9.3941    3.2510   -5.5767 F   0  0  0  0  0  0  0  0  0  0  0  0
  -10.7071    5.3083   -6.4361 S   0  0  0  0  0  0  0  0  0  0  0  0
  -10.4400    5.0002   -7.8738 O   0  0  0  0  0  0  0  0  0  0  0  0
  -12.0400    5.9683   -6.3553 O   0  0  0  0  0  0  0  0  0  0  0  0
   -9.5847    6.4113   -5.8247 O   0  0  0  0  0  0  0  0  0  0  0  0
  -11.9411    5.1618   -4.0122 F   0  0  0  0  0  0  0  0  0  0  0  0
   -9.8490    4.8591   -3.3963 F   0  0  0  0  0  0  0  0  0  0  0  0
  -12.5762    2.6543   -3.4921 F   0  0  0  0  0  0  0  0  0  0  0  0
  -10.3871    2.0640   -3.2150 F   0  0  0  0  0  0  0  0  0  0  0  0
  -10.1761    4.2315   -1.3573 F   0  0  0  0  0  0  0  0  0  0  0  0
  -12.3232    4.6915   -1.8391 F   0  0  0  0  0  0  0  0  0  0  0  0
  -12.0689    3.0736    0.6504 C   0  0  0  0  0  0  0  0  0  0  0  0
  -12.5662    2.0395    1.6180 C   0  0  0  0  0  0  0  0  0  0  0  0
  -12.7503    2.8114    2.9492 C   0  0  0  0  0  0  0  0  0  0  0  0
  -13.5739    3.8684    2.6908 F   0  0  0  0  0  0  0  0  0  0  0  0
  -13.2663    1.9293    3.8725 F   0  0  0  0  0  0  0  0  0  0  0  0
  -11.5132    3.2489    3.3629 F   0  0  0  0  0  0  0  0  0  0  0  0
  -11.6548    1.0478    1.8291 F   0  0  0  0  0  0  0  0  0  0  0  0
  -13.8098    1.5202    1.2975 F   0  0  0  0  0  0  0  0  0  0  0  0
  -12.9195    4.1960    0.6995 F   0  0  0  0  0  0  0  0  0  0  0  0
  -10.8714    3.5603    1.2133 F   0  0  0  0  0  0  0  0  0  0  0  0
  -13.0074    2.1011   -1.2555 F   0  0  0  0  0  0  0  0  0  0  0  0
  -10.9360    1.5496   -0.7061 F   0  0  0  0  0  0  0  0  0  0  0  0
  1  2  1  0
  2  3  1  0
  3  4  1  0
  4  5  1  0
  5  6  1  0
  5  7  1  0
  5  8  1  0
  8  9  2  0
  8 10  2  0
  8 11  1  0
  4 12  1  0
  4 13  1  0
  3 14  1  0
  3 15  1  0
  2 16  1  0
  2 17  1  0
  1 18  1  0
 18 19  1  0
 19 20  1  0
 20 21  1  0
 20 22  1  0
 20 23  1  0
 19 24  1  0
 19 25  1  0
 18 26  1  0
 18 27  1  0
  1 28  1  0
  1 29  1  0
M  END
$$$$
