
     RDKit          3D

  4  3  0  0  0  0  0  0  0  0999 V2000
    7.6467   11.4198   -9.2086 C   0  0  0  0  0  0  0  0  0  0  0  0
    7.4031   11.6234   -7.7295 C   0  0  0  0  0  0  0  0  0  0  0  0
    7.0111   13.3081   -7.4104 Cl  0  0  0  0  0  0  0  0  0  0  0  0
    7.8400    9.7076   -9.5859 Cl  0  0  0  0  0  0  0  0  0  0  0  0
  1  2  1  0
  2  3  1  0
  1  4  1  0
M  END
$$$$
