
     RDKit          3D

  4  3  0  0  0  0  0  0  0  0999 V2000
    7.9539   14.4206   -2.9167 C   0  0  0  0  0  0  0  0  0  0  0  0
    8.7850   14.0053   -4.1106 C   0  0  0  0  0  0  0  0  0  0  0  0
    9.8716   12.6970   -3.6616 Cl  0  0  0  0  0  0  0  0  0  0  0  0
    6.6716   15.5324   -3.3972 Cl  0  0  0  0  0  0  0  0  0  0  0  0
  1  2  1  0
  2  3  1  0
  1  4  1  0
M  END
$$$$
