
     RDKit          3D

  4  3  0  0  0  0  0  0  0  0999 V2000
    3.8086   -2.6507   21.8869 C   0  0  0  0  0  0  0  0  0  0  0  0
    3.7729   -3.3391   20.5403 C   0  0  0  0  0  0  0  0  0  0  0  0
    5.2394   -2.9760   19.6397 Cl  0  0  0  0  0  0  0  0  0  0  0  0
    2.1904   -2.5356   22.5792 Cl  0  0  0  0  0  0  0  0  0  0  0  0
  1  2  1  0
  2  3  1  0
  1  4  1  0
M  END
$$$$
