
     RDKit          3D

  4  3  0  0  0  0  0  0  0  0999 V2000
    9.6629   16.4646    2.7591 C   0  0  0  0  0  0  0  0  0  0  0  0
    8.3248   16.4404    2.0539 C   0  0  0  0  0  0  0  0  0  0  0  0
    7.4075   17.8870    2.4535 Cl  0  0  0  0  0  0  0  0  0  0  0  0
   10.5452   14.9613    2.4892 Cl  0  0  0  0  0  0  0  0  0  0  0  0
  1  2  1  0
  2  3  1  0
  1  4  1  0
M  END
$$$$
