
     RDKit          3D

  4  3  0  0  0  0  0  0  0  0999 V2000
    6.9830    8.6957  -15.5159 C   0  0  0  0  0  0  0  0  0  0  0  0
    8.0913    8.0660  -14.7013 C   0  0  0  0  0  0  0  0  0  0  0  0
    9.4884    7.7562  -15.7240 Cl  0  0  0  0  0  0  0  0  0  0  0  0
    5.4506    8.6410  -14.6441 Cl  0  0  0  0  0  0  0  0  0  0  0  0
  1  2  1  0
  2  3  1  0
  1  4  1  0
M  END
$$$$
