
     RDKit          3D

 25 24  0  0  0  0  0  0  0  0999 V2000
   -2.0488   -0.6469   -5.6560 C   0  0  0  0  0  0  0  0  0  0  0  0
   -1.5559    0.4348   -5.1866 O   0  0  0  0  0  0  0  0  0  0  0  0
   -1.9267   -1.9351   -4.9088 C   0  0  0  0  0  0  0  0  0  0  0  0
   -0.6278   -2.1380   -4.2308 C   0  0  0  0  0  0  0  0  0  0  0  0
   -0.3390   -3.4313   -3.5928 C   0  0  0  0  0  0  0  0  0  0  0  0
    1.0786   -3.5783   -3.0363 C   0  0  0  0  0  0  0  0  0  0  0  0
    1.1690   -4.9982   -2.5294 C   0  0  0  0  0  0  0  0  0  0  0  0
    2.5618   -5.5020   -2.3041 C   0  0  0  0  0  0  0  0  0  0  0  0
    2.7469   -6.5007   -1.2235 C   0  0  0  0  0  0  0  0  0  0  0  0
    4.0533   -6.3717   -0.7304 F   0  0  0  0  0  0  0  0  0  0  0  0
    1.7962   -6.5336   -0.2505 F   0  0  0  0  0  0  0  0  0  0  0  0
    2.6905   -7.7667   -1.8397 F   0  0  0  0  0  0  0  0  0  0  0  0
    3.3233   -4.3759   -1.9462 F   0  0  0  0  0  0  0  0  0  0  0  0
    3.1156   -5.9271   -3.5027 F   0  0  0  0  0  0  0  0  0  0  0  0
    0.4527   -5.8659   -3.3330 F   0  0  0  0  0  0  0  0  0  0  0  0
    0.5951   -4.9486   -1.2464 F   0  0  0  0  0  0  0  0  0  0  0  0
    1.3391   -2.7828   -1.9659 F   0  0  0  0  0  0  0  0  0  0  0  0
    1.9300   -3.3589   -4.1224 F   0  0  0  0  0  0  0  0  0  0  0  0
   -0.3736   -4.3966   -4.6140 F   0  0  0  0  0  0  0  0  0  0  0  0
   -1.2812   -3.8734   -2.6908 F   0  0  0  0  0  0  0  0  0  0  0  0
    0.3681   -1.8910   -5.1797 F   0  0  0  0  0  0  0  0  0  0  0  0
   -0.4858   -1.1299   -3.2976 F   0  0  0  0  0  0  0  0  0  0  0  0
   -2.8836   -1.9116   -3.8700 F   0  0  0  0  0  0  0  0  0  0  0  0
   -2.3570   -2.9981   -5.6839 F   0  0  0  0  0  0  0  0  0  0  0  0
   -2.6878   -0.5362   -6.8779 O   0  0  0  0  0  0  0  0  0  0  0  0
  1  2  2  0
  1  3  1  0
  3  4  1  0
  4  5  1  0
  5  6  1  0
  6  7  1  0
  7  8  1  0
  8  9  1  0
  9 10  1  0
  9 11  1  0
  9 12  1  0
  8 13  1  0
  8 14  1  0
  7 15  1  0
  7 16  1  0
  6 17  1  0
  6 18  1  0
  5 19  1  0
  5 20  1  0
  4 21  1  0
  4 22  1  0
  3 23  1  0
  3 24  1  0
  1 25  1  0
M  END
$$$$
