
     RDKit          3D

 25 24  0  0  0  0  0  0  0  0999 V2000
   -1.8846   -0.3863   -5.5299 C   0  0  0  0  0  0  0  0  0  0  0  0
   -1.6295    0.3626   -4.5262 O   0  0  0  0  0  0  0  0  0  0  0  0
   -1.9045   -1.8741   -5.3935 C   0  0  0  0  0  0  0  0  0  0  0  0
   -1.0468   -2.4095   -4.3138 C   0  0  0  0  0  0  0  0  0  0  0  0
   -0.9425   -3.8645   -4.1270 C   0  0  0  0  0  0  0  0  0  0  0  0
    0.0621   -4.3120   -3.0633 C   0  0  0  0  0  0  0  0  0  0  0  0
   -0.4392   -5.6487   -2.5702 C   0  0  0  0  0  0  0  0  0  0  0  0
    0.3814   -6.2697   -1.4814 C   0  0  0  0  0  0  0  0  0  0  0  0
   -0.3381   -7.1173   -0.5000 C   0  0  0  0  0  0  0  0  0  0  0  0
    0.5831   -7.5381    0.4700 F   0  0  0  0  0  0  0  0  0  0  0  0
   -1.4875   -6.6090    0.0219 F   0  0  0  0  0  0  0  0  0  0  0  0
   -0.7281   -8.2811   -1.1920 F   0  0  0  0  0  0  0  0  0  0  0  0
    0.9336   -5.1976   -0.7589 F   0  0  0  0  0  0  0  0  0  0  0  0
    1.4786   -6.9226   -2.0236 F   0  0  0  0  0  0  0  0  0  0  0  0
   -0.6245   -6.5336   -3.6163 F   0  0  0  0  0  0  0  0  0  0  0  0
   -1.6745   -5.3570   -1.9644 F   0  0  0  0  0  0  0  0  0  0  0  0
    0.1091   -3.5051   -1.9709 F   0  0  0  0  0  0  0  0  0  0  0  0
    1.2842   -4.4292   -3.7306 F   0  0  0  0  0  0  0  0  0  0  0  0
   -0.3905   -4.3805   -5.3123 F   0  0  0  0  0  0  0  0  0  0  0  0
   -2.1386   -4.5357   -4.0022 F   0  0  0  0  0  0  0  0  0  0  0  0
    0.2393   -1.9073   -4.5307 F   0  0  0  0  0  0  0  0  0  0  0  0
   -1.4591   -1.8284   -3.1308 F   0  0  0  0  0  0  0  0  0  0  0  0
   -3.2196   -2.2466   -5.0366 F   0  0  0  0  0  0  0  0  0  0  0  0
   -1.7477   -2.4850   -6.6255 F   0  0  0  0  0  0  0  0  0  0  0  0
   -2.1343    0.2696   -6.7219 O   0  0  0  0  0  0  0  0  0  0  0  0
  1  2  2  0
  1  3  1  0
  3  4  1  0
  4  5  1  0
  5  6  1  0
  6  7  1  0
  7  8  1  0
  8  9  1  0
  9 10  1  0
  9 11  1  0
  9 12  1  0
  8 13  1  0
  8 14  1  0
  7 15  1  0
  7 16  1  0
  6 17  1  0
  6 18  1  0
  5 19  1  0
  5 20  1  0
  4 21  1  0
  4 22  1  0
  3 23  1  0
  3 24  1  0
  1 25  1  0
M  END
$$$$
