
     RDKit          3D

 25 24  0  0  0  0  0  0  0  0999 V2000
    6.7512   -5.8385   -1.7225 C   0  0  0  0  0  0  0  0  0  0  0  0
    6.7908   -6.9569   -2.3397 O   0  0  0  0  0  0  0  0  0  0  0  0
    5.4702   -5.3177   -1.1564 C   0  0  0  0  0  0  0  0  0  0  0  0
    4.2996   -6.1992   -1.3576 C   0  0  0  0  0  0  0  0  0  0  0  0
    2.9970   -5.8116   -0.7955 C   0  0  0  0  0  0  0  0  0  0  0  0
    1.9066   -6.8810   -0.8866 C   0  0  0  0  0  0  0  0  0  0  0  0
    0.6306   -6.1954   -0.4589 C   0  0  0  0  0  0  0  0  0  0  0  0
   -0.5878   -7.0672   -0.4618 C   0  0  0  0  0  0  0  0  0  0  0  0
   -1.4263   -7.0514    0.7613 C   0  0  0  0  0  0  0  0  0  0  0  0
   -1.2452   -5.8149    1.3975 F   0  0  0  0  0  0  0  0  0  0  0  0
   -2.7323   -7.4038    0.6131 F   0  0  0  0  0  0  0  0  0  0  0  0
   -0.8784   -8.0160    1.6301 F   0  0  0  0  0  0  0  0  0  0  0  0
   -0.1167   -8.3833   -0.6100 F   0  0  0  0  0  0  0  0  0  0  0  0
   -1.3368   -6.8372   -1.6063 F   0  0  0  0  0  0  0  0  0  0  0  0
    0.4134   -5.0387   -1.1847 F   0  0  0  0  0  0  0  0  0  0  0  0
    0.8406   -5.8793    0.8953 F   0  0  0  0  0  0  0  0  0  0  0  0
    2.0770   -7.9209   -0.0286 F   0  0  0  0  0  0  0  0  0  0  0  0
    1.8676   -7.2600   -2.2310 F   0  0  0  0  0  0  0  0  0  0  0  0
    2.4967   -4.7869   -1.6174 F   0  0  0  0  0  0  0  0  0  0  0  0
    3.0357   -5.2391    0.4565 F   0  0  0  0  0  0  0  0  0  0  0  0
    4.1454   -6.3604   -2.7373 F   0  0  0  0  0  0  0  0  0  0  0  0
    4.6404   -7.4533   -0.8903 F   0  0  0  0  0  0  0  0  0  0  0  0
    5.6317   -5.2355    0.2445 F   0  0  0  0  0  0  0  0  0  0  0  0
    5.2761   -3.9938   -1.5104 F   0  0  0  0  0  0  0  0  0  0  0  0
    7.9549   -5.1642   -1.6216 O   0  0  0  0  0  0  0  0  0  0  0  0
  1  2  2  0
  1  3  1  0
  3  4  1  0
  4  5  1  0
  5  6  1  0
  6  7  1  0
  7  8  1  0
  8  9  1  0
  9 10  1  0
  9 11  1  0
  9 12  1  0
  8 13  1  0
  8 14  1  0
  7 15  1  0
  7 16  1  0
  6 17  1  0
  6 18  1  0
  5 19  1  0
  5 20  1  0
  4 21  1  0
  4 22  1  0
  3 23  1  0
  3 24  1  0
  1 25  1  0
M  END
$$$$
