
     RDKit          3D

 29 28  0  0  0  0  0  0  0  0999 V2000
  -13.1118  -12.4131    5.1280 C   0  0  0  0  0  0  0  0  0  0  0  0
  -14.0689  -12.5727    4.0110 C   0  0  0  0  0  0  0  0  0  0  0  0
  -15.1870  -13.5374    4.1573 C   0  0  0  0  0  0  0  0  0  0  0  0
  -16.0015  -13.8477    2.9699 C   0  0  0  0  0  0  0  0  0  0  0  0
  -17.2197  -14.6792    3.1832 C   0  0  0  0  0  0  0  0  0  0  0  0
  -17.8892  -14.1052    4.2805 F   0  0  0  0  0  0  0  0  0  0  0  0
  -16.8256  -15.9691    3.5334 F   0  0  0  0  0  0  0  0  0  0  0  0
  -18.3717  -14.8118    1.8916 S   0  0  0  0  0  0  0  0  0  0  0  0
  -17.7554  -15.1041    0.5270 O   0  0  0  0  0  0  0  0  0  0  0  0
  -19.5018  -15.7366    2.1381 O   0  0  0  0  0  0  0  0  0  0  0  0
  -19.0604  -13.2564    1.6449 O   0  0  0  0  0  0  0  0  0  0  0  0
  -15.2586  -14.4995    1.9736 F   0  0  0  0  0  0  0  0  0  0  0  0
  -16.4618  -12.6221    2.4560 F   0  0  0  0  0  0  0  0  0  0  0  0
  -16.0003  -13.1025    5.1919 F   0  0  0  0  0  0  0  0  0  0  0  0
  -14.6181  -14.7328    4.5992 F   0  0  0  0  0  0  0  0  0  0  0  0
  -13.3115  -13.0186    2.9131 F   0  0  0  0  0  0  0  0  0  0  0  0
  -14.5173  -11.3162    3.6331 F   0  0  0  0  0  0  0  0  0  0  0  0
  -11.9770  -11.5219    4.5594 C   0  0  0  0  0  0  0  0  0  0  0  0
  -10.8135  -11.5518    5.4923 C   0  0  0  0  0  0  0  0  0  0  0  0
   -9.9508  -12.7710    5.2303 C   0  0  0  0  0  0  0  0  0  0  0  0
   -8.7688  -12.6938    5.9642 F   0  0  0  0  0  0  0  0  0  0  0  0
  -10.5933  -13.9326    5.5768 F   0  0  0  0  0  0  0  0  0  0  0  0
   -9.6018  -12.7425    3.8975 F   0  0  0  0  0  0  0  0  0  0  0  0
  -10.0227  -10.4551    5.1965 F   0  0  0  0  0  0  0  0  0  0  0  0
  -11.1913  -11.5361    6.8081 F   0  0  0  0  0  0  0  0  0  0  0  0
  -12.4243  -10.2195    4.4365 F   0  0  0  0  0  0  0  0  0  0  0  0
  -11.7002  -12.0097    3.3126 F   0  0  0  0  0  0  0  0  0  0  0  0
  -12.5290  -13.5636    5.5584 F   0  0  0  0  0  0  0  0  0  0  0  0
  -13.5869  -11.6663    6.1982 F   0  0  0  0  0  0  0  0  0  0  0  0
  1  2  1  0
  2  3  1  0
  3  4  1  0
  4  5  1  0
  5  6  1  0
  5  7  1  0
  5  8  1  0
  8  9  2  0
  8 10  2  0
  8 11  1  0
  4 12  1  0
  4 13  1  0
  3 14  1  0
  3 15  1  0
  2 16  1  0
  2 17  1  0
  1 18  1  0
 18 19  1  0
 19 20  1  0
 20 21  1  0
 20 22  1  0
 20 23  1  0
 19 24  1  0
 19 25  1  0
 18 26  1  0
 18 27  1  0
  1 28  1  0
  1 29  1  0
M  END
$$$$
