
     RDKit          3D

 29 28  0  0  0  0  0  0  0  0999 V2000
  -15.7721    3.4339    2.2204 C   0  0  0  0  0  0  0  0  0  0  0  0
  -16.6137    4.5854    1.8268 C   0  0  0  0  0  0  0  0  0  0  0  0
  -16.9655    5.5997    2.8513 C   0  0  0  0  0  0  0  0  0  0  0  0
  -17.7421    6.7781    2.4296 C   0  0  0  0  0  0  0  0  0  0  0  0
  -18.1451    7.7397    3.4944 C   0  0  0  0  0  0  0  0  0  0  0  0
  -16.9452    8.2202    4.0521 F   0  0  0  0  0  0  0  0  0  0  0  0
  -18.8434    7.0473    4.4819 F   0  0  0  0  0  0  0  0  0  0  0  0
  -19.0939    9.1231    3.0489 S   0  0  0  0  0  0  0  0  0  0  0  0
  -19.3218   10.1202    4.1808 O   0  0  0  0  0  0  0  0  0  0  0  0
  -18.6434    9.8404    1.8340 O   0  0  0  0  0  0  0  0  0  0  0  0
  -20.6922    8.5783    2.7279 O   0  0  0  0  0  0  0  0  0  0  0  0
  -18.9246    6.4223    1.7629 F   0  0  0  0  0  0  0  0  0  0  0  0
  -16.9307    7.5090    1.5433 F   0  0  0  0  0  0  0  0  0  0  0  0
  -15.7979    6.0000    3.4818 F   0  0  0  0  0  0  0  0  0  0  0  0
  -17.7117    4.9322    3.8237 F   0  0  0  0  0  0  0  0  0  0  0  0
  -17.8324    4.0407    1.3842 F   0  0  0  0  0  0  0  0  0  0  0  0
  -16.0635    5.1654    0.6939 F   0  0  0  0  0  0  0  0  0  0  0  0
  -15.5219    2.6519    0.9047 C   0  0  0  0  0  0  0  0  0  0  0  0
  -14.8536    1.3565    1.2217 C   0  0  0  0  0  0  0  0  0  0  0  0
  -14.1414    0.8105   -0.0008 C   0  0  0  0  0  0  0  0  0  0  0  0
  -15.0483    0.6105   -1.0396 F   0  0  0  0  0  0  0  0  0  0  0  0
  -13.1653    1.6660   -0.4450 F   0  0  0  0  0  0  0  0  0  0  0  0
  -13.6388   -0.4262    0.3410 F   0  0  0  0  0  0  0  0  0  0  0  0
  -13.8639    1.6227    2.1517 F   0  0  0  0  0  0  0  0  0  0  0  0
  -15.7259    0.4151    1.6983 F   0  0  0  0  0  0  0  0  0  0  0  0
  -14.7025    3.3910    0.0718 F   0  0  0  0  0  0  0  0  0  0  0  0
  -16.7438    2.5135    0.3074 F   0  0  0  0  0  0  0  0  0  0  0  0
  -16.3526    2.5644    3.0895 F   0  0  0  0  0  0  0  0  0  0  0  0
  -14.4885    3.7665    2.6333 F   0  0  0  0  0  0  0  0  0  0  0  0
  1  2  1  0
  2  3  1  0
  3  4  1  0
  4  5  1  0
  5  6  1  0
  5  7  1  0
  5  8  1  0
  8  9  2  0
  8 10  2  0
  8 11  1  0
  4 12  1  0
  4 13  1  0
  3 14  1  0
  3 15  1  0
  2 16  1  0
  2 17  1  0
  1 18  1  0
 18 19  1  0
 19 20  1  0
 20 21  1  0
 20 22  1  0
 20 23  1  0
 19 24  1  0
 19 25  1  0
 18 26  1  0
 18 27  1  0
  1 28  1  0
  1 29  1  0
M  END
$$$$
