
     RDKit          3D

 29 28  0  0  0  0  0  0  0  0999 V2000
   -5.4947   -5.6457    4.4833 C   0  0  0  0  0  0  0  0  0  0  0  0
   -5.9670   -7.0276    4.7210 C   0  0  0  0  0  0  0  0  0  0  0  0
   -5.2407   -7.8752    5.6988 C   0  0  0  0  0  0  0  0  0  0  0  0
   -5.7074   -9.2566    5.9079 C   0  0  0  0  0  0  0  0  0  0  0  0
   -4.9683  -10.0766    6.9090 C   0  0  0  0  0  0  0  0  0  0  0  0
   -5.1731   -9.4442    8.1499 F   0  0  0  0  0  0  0  0  0  0  0  0
   -3.6080  -10.0292    6.6098 F   0  0  0  0  0  0  0  0  0  0  0  0
   -5.4078  -11.7443    7.1043 S   0  0  0  0  0  0  0  0  0  0  0  0
   -5.1229  -12.6164    5.8854 O   0  0  0  0  0  0  0  0  0  0  0  0
   -4.8848  -12.4027    8.3233 O   0  0  0  0  0  0  0  0  0  0  0  0
   -7.1218  -11.8238    7.2054 O   0  0  0  0  0  0  0  0  0  0  0  0
   -5.7037  -10.0025    4.7192 F   0  0  0  0  0  0  0  0  0  0  0  0
   -7.0290   -9.1761    6.3823 F   0  0  0  0  0  0  0  0  0  0  0  0
   -5.1973   -7.1994    6.9081 F   0  0  0  0  0  0  0  0  0  0  0  0
   -3.9194   -7.9422    5.2543 F   0  0  0  0  0  0  0  0  0  0  0  0
   -5.8676   -7.6888    3.4837 F   0  0  0  0  0  0  0  0  0  0  0  0
   -7.3281   -6.9883    4.9826 F   0  0  0  0  0  0  0  0  0  0  0  0
   -6.1923   -5.2038    3.1705 C   0  0  0  0  0  0  0  0  0  0  0  0
   -6.0822   -3.7229    3.0291 C   0  0  0  0  0  0  0  0  0  0  0  0
   -7.2661   -3.1711    2.2588 C   0  0  0  0  0  0  0  0  0  0  0  0
   -6.9691   -1.9055    1.7572 F   0  0  0  0  0  0  0  0  0  0  0  0
   -7.6077   -3.9790    1.2039 F   0  0  0  0  0  0  0  0  0  0  0  0
   -8.2993   -3.0176    3.1576 F   0  0  0  0  0  0  0  0  0  0  0  0
   -6.1695   -3.1822    4.3001 F   0  0  0  0  0  0  0  0  0  0  0  0
   -4.9206   -3.3359    2.4166 F   0  0  0  0  0  0  0  0  0  0  0  0
   -7.5287   -5.5556    3.2115 F   0  0  0  0  0  0  0  0  0  0  0  0
   -5.5856   -5.9031    2.1645 F   0  0  0  0  0  0  0  0  0  0  0  0
   -4.1566   -5.5197    4.2783 F   0  0  0  0  0  0  0  0  0  0  0  0
   -5.9462   -4.7105    5.4053 F   0  0  0  0  0  0  0  0  0  0  0  0
  1  2  1  0
  2  3  1  0
  3  4  1  0
  4  5  1  0
  5  6  1  0
  5  7  1  0
  5  8  1  0
  8  9  2  0
  8 10  2  0
  8 11  1  0
  4 12  1  0
  4 13  1  0
  3 14  1  0
  3 15  1  0
  2 16  1  0
  2 17  1  0
  1 18  1  0
 18 19  1  0
 19 20  1  0
 20 21  1  0
 20 22  1  0
 20 23  1  0
 19 24  1  0
 19 25  1  0
 18 26  1  0
 18 27  1  0
  1 28  1  0
  1 29  1  0
M  END
$$$$
