
     RDKit          3D

 29 28  0  0  0  0  0  0  0  0999 V2000
   -4.6051  -12.8987    8.5399 C   0  0  0  0  0  0  0  0  0  0  0  0
   -4.4297  -14.3006    8.9795 C   0  0  0  0  0  0  0  0  0  0  0  0
   -3.5027  -14.5894   10.1018 C   0  0  0  0  0  0  0  0  0  0  0  0
   -3.4234  -15.9718   10.6040 C   0  0  0  0  0  0  0  0  0  0  0  0
   -2.3652  -16.2663   11.6112 C   0  0  0  0  0  0  0  0  0  0  0  0
   -2.6340  -15.4254   12.7078 F   0  0  0  0  0  0  0  0  0  0  0  0
   -1.1278  -15.9118   11.0773 F   0  0  0  0  0  0  0  0  0  0  0  0
   -2.2307  -17.8839   12.2261 S   0  0  0  0  0  0  0  0  0  0  0  0
   -3.4952  -18.4075   12.9001 O   0  0  0  0  0  0  0  0  0  0  0  0
   -1.7226  -18.8904   11.2660 O   0  0  0  0  0  0  0  0  0  0  0  0
   -1.1168  -17.8537   13.5348 O   0  0  0  0  0  0  0  0  0  0  0  0
   -3.2410  -16.9017    9.5691 F   0  0  0  0  0  0  0  0  0  0  0  0
   -4.6454  -16.2470   11.2436 F   0  0  0  0  0  0  0  0  0  0  0  0
   -3.7990  -13.7216   11.1411 F   0  0  0  0  0  0  0  0  0  0  0  0
   -2.2284  -14.2304    9.6599 F   0  0  0  0  0  0  0  0  0  0  0  0
   -3.9215  -14.9945    7.8668 F   0  0  0  0  0  0  0  0  0  0  0  0
   -5.6828  -14.8558    9.1892 F   0  0  0  0  0  0  0  0  0  0  0  0
   -5.5780  -12.9753    7.3345 C   0  0  0  0  0  0  0  0  0  0  0  0
   -5.8065  -11.6022    6.7986 C   0  0  0  0  0  0  0  0  0  0  0  0
   -6.7611  -11.6412    5.6209 C   0  0  0  0  0  0  0  0  0  0  0  0
   -8.0260  -12.0514    6.0372 F   0  0  0  0  0  0  0  0  0  0  0  0
   -6.8855  -10.4112    5.0262 F   0  0  0  0  0  0  0  0  0  0  0  0
   -6.2916  -12.5998    4.7494 F   0  0  0  0  0  0  0  0  0  0  0  0
   -6.4506  -10.8784    7.7869 F   0  0  0  0  0  0  0  0  0  0  0  0
   -4.6453  -10.9821    6.4225 F   0  0  0  0  0  0  0  0  0  0  0  0
   -6.7865  -13.5074    7.7441 F   0  0  0  0  0  0  0  0  0  0  0  0
   -5.0035  -13.8319    6.4371 F   0  0  0  0  0  0  0  0  0  0  0  0
   -3.4754  -12.2874    8.0942 F   0  0  0  0  0  0  0  0  0  0  0  0
   -5.2867  -12.0888    9.4386 F   0  0  0  0  0  0  0  0  0  0  0  0
  1  2  1  0
  2  3  1  0
  3  4  1  0
  4  5  1  0
  5  6  1  0
  5  7  1  0
  5  8  1  0
  8  9  2  0
  8 10  2  0
  8 11  1  0
  4 12  1  0
  4 13  1  0
  3 14  1  0
  3 15  1  0
  2 16  1  0
  2 17  1  0
  1 18  1  0
 18 19  1  0
 19 20  1  0
 20 21  1  0
 20 22  1  0
 20 23  1  0
 19 24  1  0
 19 25  1  0
 18 26  1  0
 18 27  1  0
  1 28  1  0
  1 29  1  0
M  END
$$$$
