
     RDKit          3D

 29 28  0  0  0  0  0  0  0  0999 V2000
  -13.8679    3.6434    6.5692 C   0  0  0  0  0  0  0  0  0  0  0  0
  -14.2345    3.8813    7.9828 C   0  0  0  0  0  0  0  0  0  0  0  0
  -13.4171    4.8235    8.7867 C   0  0  0  0  0  0  0  0  0  0  0  0
  -13.6939    4.9327   10.2293 C   0  0  0  0  0  0  0  0  0  0  0  0
  -12.9370    5.9689   10.9871 C   0  0  0  0  0  0  0  0  0  0  0  0
  -13.0179    7.1442   10.2164 F   0  0  0  0  0  0  0  0  0  0  0  0
  -11.6002    5.5821   11.0612 F   0  0  0  0  0  0  0  0  0  0  0  0
  -13.4596    6.3714   12.5926 S   0  0  0  0  0  0  0  0  0  0  0  0
  -14.1945    5.2464   13.3150 O   0  0  0  0  0  0  0  0  0  0  0  0
  -12.4170    6.9375   13.4790 O   0  0  0  0  0  0  0  0  0  0  0  0
  -14.6860    7.5680   12.4576 O   0  0  0  0  0  0  0  0  0  0  0  0
  -13.4730    3.7224   10.9041 F   0  0  0  0  0  0  0  0  0  0  0  0
  -15.0506    5.2786   10.3620 F   0  0  0  0  0  0  0  0  0  0  0  0
  -13.4889    6.0734    8.1922 F   0  0  0  0  0  0  0  0  0  0  0  0
  -12.0911    4.4118    8.6444 F   0  0  0  0  0  0  0  0  0  0  0  0
  -14.1333    2.6337    8.6241 F   0  0  0  0  0  0  0  0  0  0  0  0
  -15.5850    4.1903    8.0409 F   0  0  0  0  0  0  0  0  0  0  0  0
  -14.9784    2.7113    6.0184 C   0  0  0  0  0  0  0  0  0  0  0  0
  -15.6738    3.3899    4.8866 C   0  0  0  0  0  0  0  0  0  0  0  0
  -16.4287    2.3812    4.0426 C   0  0  0  0  0  0  0  0  0  0  0  0
  -15.5626    1.3918    3.5816 F   0  0  0  0  0  0  0  0  0  0  0  0
  -17.4321    1.7728    4.7535 F   0  0  0  0  0  0  0  0  0  0  0  0
  -16.9025    3.0516    2.9358 F   0  0  0  0  0  0  0  0  0  0  0  0
  -16.6341    4.2219    5.4353 F   0  0  0  0  0  0  0  0  0  0  0  0
  -14.8164    4.0993    4.0892 F   0  0  0  0  0  0  0  0  0  0  0  0
  -15.8967    2.4405    7.0157 F   0  0  0  0  0  0  0  0  0  0  0  0
  -14.3559    1.5458    5.6674 F   0  0  0  0  0  0  0  0  0  0  0  0
  -12.6855    2.9998    6.3794 F   0  0  0  0  0  0  0  0  0  0  0  0
  -13.9634    4.7595    5.7484 F   0  0  0  0  0  0  0  0  0  0  0  0
  1  2  1  0
  2  3  1  0
  3  4  1  0
  4  5  1  0
  5  6  1  0
  5  7  1  0
  5  8  1  0
  8  9  2  0
  8 10  2  0
  8 11  1  0
  4 12  1  0
  4 13  1  0
  3 14  1  0
  3 15  1  0
  2 16  1  0
  2 17  1  0
  1 18  1  0
 18 19  1  0
 19 20  1  0
 20 21  1  0
 20 22  1  0
 20 23  1  0
 19 24  1  0
 19 25  1  0
 18 26  1  0
 18 27  1  0
  1 28  1  0
  1 29  1  0
M  END
$$$$
