
     RDKit          3D

 29 28  0  0  0  0  0  0  0  0999 V2000
   -6.0861   12.0228    1.2329 C   0  0  0  0  0  0  0  0  0  0  0  0
   -4.9052   12.8642    0.9383 C   0  0  0  0  0  0  0  0  0  0  0  0
   -4.1010   12.5718   -0.2741 C   0  0  0  0  0  0  0  0  0  0  0  0
   -3.1271   13.5801   -0.7262 C   0  0  0  0  0  0  0  0  0  0  0  0
   -2.4949   13.3613   -2.0578 C   0  0  0  0  0  0  0  0  0  0  0  0
   -3.5164   12.8684   -2.8917 F   0  0  0  0  0  0  0  0  0  0  0  0
   -1.5159   12.3775   -1.9323 F   0  0  0  0  0  0  0  0  0  0  0  0
   -1.7789   14.7175   -2.8706 S   0  0  0  0  0  0  0  0  0  0  0  0
   -2.7768   15.7825   -3.3151 O   0  0  0  0  0  0  0  0  0  0  0  0
   -0.6456   15.3580   -2.1645 O   0  0  0  0  0  0  0  0  0  0  0  0
   -1.1622   14.1586   -4.3744 O   0  0  0  0  0  0  0  0  0  0  0  0
   -2.0693   13.7393    0.1821 F   0  0  0  0  0  0  0  0  0  0  0  0
   -3.8177   14.8011   -0.8282 F   0  0  0  0  0  0  0  0  0  0  0  0
   -4.9724   12.2561   -1.3047 F   0  0  0  0  0  0  0  0  0  0  0  0
   -3.3946   11.3991   -0.0025 F   0  0  0  0  0  0  0  0  0  0  0  0
   -4.0339   12.7045    2.0307 F   0  0  0  0  0  0  0  0  0  0  0  0
   -5.2886   14.1955    0.9947 F   0  0  0  0  0  0  0  0  0  0  0  0
   -6.4205   12.3079    2.7203 C   0  0  0  0  0  0  0  0  0  0  0  0
   -7.6158   11.5091    3.1177 C   0  0  0  0  0  0  0  0  0  0  0  0
   -8.1774   12.0087    4.4348 C   0  0  0  0  0  0  0  0  0  0  0  0
   -9.3455   11.3198    4.7548 F   0  0  0  0  0  0  0  0  0  0  0  0
   -7.2865   11.8397    5.4643 F   0  0  0  0  0  0  0  0  0  0  0  0
   -8.5241   13.3300    4.2532 F   0  0  0  0  0  0  0  0  0  0  0  0
   -8.5984   11.7433    2.1716 F   0  0  0  0  0  0  0  0  0  0  0  0
   -7.3473   10.1703    3.2163 F   0  0  0  0  0  0  0  0  0  0  0  0
   -6.6996   13.6518    2.8860 F   0  0  0  0  0  0  0  0  0  0  0  0
   -5.2908   12.0043    3.4280 F   0  0  0  0  0  0  0  0  0  0  0  0
   -5.8819   10.6829    1.1264 F   0  0  0  0  0  0  0  0  0  0  0  0
   -7.2486   12.4021    0.5747 F   0  0  0  0  0  0  0  0  0  0  0  0
  1  2  1  0
  2  3  1  0
  3  4  1  0
  4  5  1  0
  5  6  1  0
  5  7  1  0
  5  8  1  0
  8  9  2  0
  8 10  2  0
  8 11  1  0
  4 12  1  0
  4 13  1  0
  3 14  1  0
  3 15  1  0
  2 16  1  0
  2 17  1  0
  1 18  1  0
 18 19  1  0
 19 20  1  0
 20 21  1  0
 20 22  1  0
 20 23  1  0
 19 24  1  0
 19 25  1  0
 18 26  1  0
 18 27  1  0
  1 28  1  0
  1 29  1  0
M  END
$$$$
