
     RDKit          3D

 14 16  0  0  0  0  0  0  0  0999 V2000
    6.1529  -42.2089   -0.3424 C   0  0  0  0  0  0  0  0  0  0  0  0
    7.3363  -42.2322   -1.0431 C   0  0  0  0  0  0  0  0  0  0  0  0
    7.9939  -43.3929   -1.3949 C   0  0  0  0  0  0  0  0  0  0  0  0
    7.4246  -44.6077   -1.0177 C   0  0  0  0  0  0  0  0  0  0  0  0
    6.2505  -44.5833   -0.3226 C   0  0  0  0  0  0  0  0  0  0  0  0
    5.5963  -43.4226    0.0272 C   0  0  0  0  0  0  0  0  0  0  0  0
    5.9324  -45.8697   -0.0920 N   0  0  0  0  0  0  0  0  0  0  0  0
    6.8819  -46.6772   -0.6284 C   0  0  0  0  0  0  0  0  0  0  0  0
    7.7939  -45.8844   -1.1948 N   0  0  0  0  0  0  0  0  0  0  0  0
    6.8906  -48.1711   -0.5846 C   0  0  0  0  0  0  0  0  0  0  0  0
    5.8609  -48.8642   -0.0494 C   0  0  0  0  0  0  0  0  0  0  0  0
    6.3216  -50.5910   -0.2233 S   0  0  0  0  0  0  0  0  0  0  0  0
    7.9913  -50.1055   -1.0706 C   0  0  0  0  0  0  0  0  0  0  0  0
    7.8827  -48.8688   -1.0563 N   0  0  0  0  0  0  0  0  0  0  0  0
  1  2  2  0
  2  3  1  0
  3  4  2  0
  4  5  1  0
  5  6  2  0
  5  7  1  0
  7  8  1  0
  8  9  2  0
  8 10  1  0
 10 11  2  0
 11 12  1  0
 12 13  1  0
 13 14  2  0
  6  1  1  0
  9  4  1  0
 14 10  1  0
M  END
$$$$
