
     RDKit          3D

 14 16  0  0  0  0  0  0  0  0999 V2000
   32.6383  -51.7969   14.1923 C   0  0  0  0  0  0  0  0  0  0  0  0
   33.9561  -51.8174   14.5860 C   0  0  0  0  0  0  0  0  0  0  0  0
   35.0166  -51.8695   13.7049 C   0  0  0  0  0  0  0  0  0  0  0  0
   34.7332  -51.9031   12.3409 C   0  0  0  0  0  0  0  0  0  0  0  0
   33.4254  -51.8828   11.9516 C   0  0  0  0  0  0  0  0  0  0  0  0
   32.3686  -51.8307   12.8338 C   0  0  0  0  0  0  0  0  0  0  0  0
   33.4407  -51.9231   10.6073 N   0  0  0  0  0  0  0  0  0  0  0  0
   34.7236  -51.9675   10.1673 C   0  0  0  0  0  0  0  0  0  0  0  0
   35.5074  -51.9545   11.2474 N   0  0  0  0  0  0  0  0  0  0  0  0
   35.1603  -52.0207    8.7389 C   0  0  0  0  0  0  0  0  0  0  0  0
   34.2663  -51.9468    7.7278 C   0  0  0  0  0  0  0  0  0  0  0  0
   35.2492  -52.0513    6.2287 S   0  0  0  0  0  0  0  0  0  0  0  0
   36.8816  -52.1935    7.2566 C   0  0  0  0  0  0  0  0  0  0  0  0
   36.4125  -52.1398    8.4049 N   0  0  0  0  0  0  0  0  0  0  0  0
  1  2  2  0
  2  3  1  0
  3  4  2  0
  4  5  1  0
  5  6  2  0
  5  7  1  0
  7  8  1  0
  8  9  2  0
  8 10  1  0
 10 11  2  0
 11 12  1  0
 12 13  1  0
 13 14  2  0
  6  1  1  0
  9  4  1  0
 14 10  1  0
M  END
$$$$
