
     RDKit          3D

 14 16  0  0  0  0  0  0  0  0999 V2000
   35.5409  -43.7275   12.1514 C   0  0  0  0  0  0  0  0  0  0  0  0
   36.0872  -43.1662   11.0207 C   0  0  0  0  0  0  0  0  0  0  0  0
   35.5408  -42.0826   10.3643 C   0  0  0  0  0  0  0  0  0  0  0  0
   34.3700  -41.5284   10.8783 C   0  0  0  0  0  0  0  0  0  0  0  0
   33.8290  -42.0861   12.0001 C   0  0  0  0  0  0  0  0  0  0  0  0
   34.3770  -43.1681   12.6533 C   0  0  0  0  0  0  0  0  0  0  0  0
   32.7248  -41.3679   12.2725 N   0  0  0  0  0  0  0  0  0  0  0  0
   32.5790  -40.3872   11.3461 C   0  0  0  0  0  0  0  0  0  0  0  0
   33.6004  -40.4998   10.4945 N   0  0  0  0  0  0  0  0  0  0  0  0
   31.4768  -39.3788   11.3013 C   0  0  0  0  0  0  0  0  0  0  0  0
   31.4090  -38.4553   10.3166 C   0  0  0  0  0  0  0  0  0  0  0  0
   29.9416  -37.4883   10.6853 S   0  0  0  0  0  0  0  0  0  0  0  0
   29.5820  -38.5532   12.2596 C   0  0  0  0  0  0  0  0  0  0  0  0
   30.5380  -39.3433   12.2020 N   0  0  0  0  0  0  0  0  0  0  0  0
  1  2  2  0
  2  3  1  0
  3  4  2  0
  4  5  1  0
  5  6  2  0
  5  7  1  0
  7  8  1  0
  8  9  2  0
  8 10  1  0
 10 11  2  0
 11 12  1  0
 12 13  1  0
 13 14  2  0
  6  1  1  0
  9  4  1  0
 14 10  1  0
M  END
$$$$
