
     RDKit          3D

 14 16  0  0  0  0  0  0  0  0999 V2000
   35.7200  -59.7928    8.5797 C   0  0  0  0  0  0  0  0  0  0  0  0
   34.7781  -58.8494    8.2410 C   0  0  0  0  0  0  0  0  0  0  0  0
   33.4176  -59.0676    8.3115 C   0  0  0  0  0  0  0  0  0  0  0  0
   32.9766  -60.3144    8.7509 C   0  0  0  0  0  0  0  0  0  0  0  0
   33.9121  -61.2495    9.0867 C   0  0  0  0  0  0  0  0  0  0  0  0
   35.2700  -61.0286    9.0152 C   0  0  0  0  0  0  0  0  0  0  0  0
   33.2226  -62.3392    9.4693 N   0  0  0  0  0  0  0  0  0  0  0  0
   31.8915  -62.0925    9.3753 C   0  0  0  0  0  0  0  0  0  0  0  0
   31.7569  -60.8411    8.9315 N   0  0  0  0  0  0  0  0  0  0  0  0
   30.7953  -63.0517    9.7097 C   0  0  0  0  0  0  0  0  0  0  0  0
   31.0648  -64.2952   10.1661 C   0  0  0  0  0  0  0  0  0  0  0  0
   29.4584  -65.0559   10.4211 S   0  0  0  0  0  0  0  0  0  0  0  0
   28.5556  -63.4524    9.8250 C   0  0  0  0  0  0  0  0  0  0  0  0
   29.5395  -62.7366    9.5779 N   0  0  0  0  0  0  0  0  0  0  0  0
  1  2  2  0
  2  3  1  0
  3  4  2  0
  4  5  1  0
  5  6  2  0
  5  7  1  0
  7  8  1  0
  8  9  2  0
  8 10  1  0
 10 11  2  0
 11 12  1  0
 12 13  1  0
 13 14  2  0
  6  1  1  0
  9  4  1  0
 14 10  1  0
M  END
$$$$
