
     RDKit          3D

 14 16  0  0  0  0  0  0  0  0999 V2000
    2.1234  -37.6331    6.4793 C   0  0  0  0  0  0  0  0  0  0  0  0
    3.3418  -37.1895    6.9382 C   0  0  0  0  0  0  0  0  0  0  0  0
    4.5520  -37.6653    6.4769 C   0  0  0  0  0  0  0  0  0  0  0  0
    4.5351  -38.6502    5.4911 C   0  0  0  0  0  0  0  0  0  0  0  0
    3.3256  -39.0894    5.0367 C   0  0  0  0  0  0  0  0  0  0  0  0
    2.1189  -38.6123    5.4993 C   0  0  0  0  0  0  0  0  0  0  0  0
    3.5983  -40.0221    4.1066 N   0  0  0  0  0  0  0  0  0  0  0  0
    4.9423  -40.1626    3.9826 C   0  0  0  0  0  0  0  0  0  0  0  0
    5.5048  -39.3106    4.8421 N   0  0  0  0  0  0  0  0  0  0  0  0
    5.6448  -41.0993    3.0537 C   0  0  0  0  0  0  0  0  0  0  0  0
    4.9568  -41.8885    2.1989 C   0  0  0  0  0  0  0  0  0  0  0  0
    6.2109  -42.8168    1.3102 S   0  0  0  0  0  0  0  0  0  0  0  0
    7.6233  -41.9385    2.2979 C   0  0  0  0  0  0  0  0  0  0  0  0
    6.9422  -41.1978    3.0252 N   0  0  0  0  0  0  0  0  0  0  0  0
  1  2  2  0
  2  3  1  0
  3  4  2  0
  4  5  1  0
  5  6  2  0
  5  7  1  0
  7  8  1  0
  8  9  2  0
  8 10  1  0
 10 11  2  0
 11 12  1  0
 12 13  1  0
 13 14  2  0
  6  1  1  0
  9  4  1  0
 14 10  1  0
M  END
$$$$
