
     RDKit          3D

 29 28  0  0  0  0  0  0  0  0999 V2000
   -5.6216    3.3641  -13.4224 C   0  0  0  0  0  0  0  0  0  0  0  0
   -6.9361    2.7541  -13.1428 C   0  0  0  0  0  0  0  0  0  0  0  0
   -6.9873    1.4251  -12.4676 C   0  0  0  0  0  0  0  0  0  0  0  0
   -8.2724    0.7294  -12.3400 C   0  0  0  0  0  0  0  0  0  0  0  0
   -8.3058   -0.6175  -11.7113 C   0  0  0  0  0  0  0  0  0  0  0  0
   -7.9298   -0.5100  -10.3566 F   0  0  0  0  0  0  0  0  0  0  0  0
   -7.3335   -1.4713  -12.2412 F   0  0  0  0  0  0  0  0  0  0  0  0
   -9.8297   -1.4780  -11.7405 S   0  0  0  0  0  0  0  0  0  0  0  0
   -9.7419   -2.6092  -10.7169 O   0  0  0  0  0  0  0  0  0  0  0  0
  -10.9654   -0.5808  -11.2626 O   0  0  0  0  0  0  0  0  0  0  0  0
  -10.1785   -2.1788  -13.1935 O   0  0  0  0  0  0  0  0  0  0  0  0
   -9.2875    1.4782  -11.8033 F   0  0  0  0  0  0  0  0  0  0  0  0
   -8.7202    0.4694  -13.6699 F   0  0  0  0  0  0  0  0  0  0  0  0
   -6.0494    0.6508  -13.1961 F   0  0  0  0  0  0  0  0  0  0  0  0
   -6.3689    1.6072  -11.2225 F   0  0  0  0  0  0  0  0  0  0  0  0
   -7.6067    3.6399  -12.2659 F   0  0  0  0  0  0  0  0  0  0  0  0
   -7.7790    2.6628  -14.2455 F   0  0  0  0  0  0  0  0  0  0  0  0
   -5.6200    4.6686  -14.1449 C   0  0  0  0  0  0  0  0  0  0  0  0
   -4.3949    5.2395  -14.6999 C   0  0  0  0  0  0  0  0  0  0  0  0
   -4.5016    6.4854  -15.5217 C   0  0  0  0  0  0  0  0  0  0  0  0
   -5.4754    6.2401  -16.5067 F   0  0  0  0  0  0  0  0  0  0  0  0
   -3.3544    6.8464  -16.1619 F   0  0  0  0  0  0  0  0  0  0  0  0
   -4.9289    7.5721  -14.7658 F   0  0  0  0  0  0  0  0  0  0  0  0
   -3.3618    5.4277  -13.7792 F   0  0  0  0  0  0  0  0  0  0  0  0
   -3.8830    4.2669  -15.6188 F   0  0  0  0  0  0  0  0  0  0  0  0
   -6.6256    4.6430  -15.1477 F   0  0  0  0  0  0  0  0  0  0  0  0
   -6.1434    5.6421  -13.2516 F   0  0  0  0  0  0  0  0  0  0  0  0
   -4.8979    3.5971  -12.2441 F   0  0  0  0  0  0  0  0  0  0  0  0
   -4.8612    2.5012  -14.1959 F   0  0  0  0  0  0  0  0  0  0  0  0
  1  2  1  0
  2  3  1  0
  3  4  1  0
  4  5  1  0
  5  6  1  0
  5  7  1  0
  5  8  1  0
  8  9  2  0
  8 10  2  0
  8 11  1  0
  4 12  1  0
  4 13  1  0
  3 14  1  0
  3 15  1  0
  2 16  1  0
  2 17  1  0
  1 18  1  0
 18 19  1  0
 19 20  1  0
 20 21  1  0
 20 22  1  0
 20 23  1  0
 19 24  1  0
 19 25  1  0
 18 26  1  0
 18 27  1  0
  1 28  1  0
  1 29  1  0
M  END
$$$$
