
     RDKit          3D

 29 28  0  0  0  0  0  0  0  0999 V2000
  -10.3606   -7.9579    0.3592 C   0  0  0  0  0  0  0  0  0  0  0  0
  -10.1004   -8.0377   -1.0914 C   0  0  0  0  0  0  0  0  0  0  0  0
   -9.7141   -6.7982   -1.8257 C   0  0  0  0  0  0  0  0  0  0  0  0
   -8.9302   -6.9058   -3.0609 C   0  0  0  0  0  0  0  0  0  0  0  0
   -8.9175   -5.7620   -4.0107 C   0  0  0  0  0  0  0  0  0  0  0  0
   -8.4807   -4.6018   -3.3388 F   0  0  0  0  0  0  0  0  0  0  0  0
  -10.2036   -5.4145   -4.4354 F   0  0  0  0  0  0  0  0  0  0  0  0
   -7.9188   -5.9181   -5.4397 S   0  0  0  0  0  0  0  0  0  0  0  0
   -8.5637   -6.9692   -6.3421 O   0  0  0  0  0  0  0  0  0  0  0  0
   -7.9262   -4.6254   -6.2471 O   0  0  0  0  0  0  0  0  0  0  0  0
   -6.3817   -6.4347   -5.1327 O   0  0  0  0  0  0  0  0  0  0  0  0
   -7.6405   -7.3392   -2.8945 F   0  0  0  0  0  0  0  0  0  0  0  0
   -9.5333   -7.9475   -3.8277 F   0  0  0  0  0  0  0  0  0  0  0  0
  -10.9552   -6.1522   -2.0544 F   0  0  0  0  0  0  0  0  0  0  0  0
   -9.0838   -5.9770   -0.8800 F   0  0  0  0  0  0  0  0  0  0  0  0
   -9.0038   -8.9182   -1.2505 F   0  0  0  0  0  0  0  0  0  0  0  0
  -11.1205   -8.6262   -1.8316 F   0  0  0  0  0  0  0  0  0  0  0  0
  -11.1098   -9.0899    0.9764 C   0  0  0  0  0  0  0  0  0  0  0  0
  -11.2319   -9.2328    2.4254 C   0  0  0  0  0  0  0  0  0  0  0  0
  -12.3392  -10.0834    2.9635 C   0  0  0  0  0  0  0  0  0  0  0  0
  -12.1980  -10.0966    4.3629 F   0  0  0  0  0  0  0  0  0  0  0  0
  -12.3221  -11.3778    2.5387 F   0  0  0  0  0  0  0  0  0  0  0  0
  -13.5916   -9.5540    2.6697 F   0  0  0  0  0  0  0  0  0  0  0  0
  -10.0569   -9.6030    3.0829 F   0  0  0  0  0  0  0  0  0  0  0  0
  -11.5287   -7.9256    2.9309 F   0  0  0  0  0  0  0  0  0  0  0  0
  -12.3981   -9.1694    0.3838 F   0  0  0  0  0  0  0  0  0  0  0  0
  -10.5135  -10.2915    0.5070 F   0  0  0  0  0  0  0  0  0  0  0  0
   -9.1701   -7.8625    1.0941 F   0  0  0  0  0  0  0  0  0  0  0  0
  -11.0972   -6.8177    0.6397 F   0  0  0  0  0  0  0  0  0  0  0  0
  1  2  1  0
  2  3  1  0
  3  4  1  0
  4  5  1  0
  5  6  1  0
  5  7  1  0
  5  8  1  0
  8  9  2  0
  8 10  2  0
  8 11  1  0
  4 12  1  0
  4 13  1  0
  3 14  1  0
  3 15  1  0
  2 16  1  0
  2 17  1  0
  1 18  1  0
 18 19  1  0
 19 20  1  0
 20 21  1  0
 20 22  1  0
 20 23  1  0
 19 24  1  0
 19 25  1  0
 18 26  1  0
 18 27  1  0
  1 28  1  0
  1 29  1  0
M  END
$$$$
