
     RDKit          3D

 29 28  0  0  0  0  0  0  0  0999 V2000
  -10.1861   -8.4746   -0.0008 C   0  0  0  0  0  0  0  0  0  0  0  0
  -10.4309   -7.5511   -1.1258 C   0  0  0  0  0  0  0  0  0  0  0  0
   -9.3592   -7.3520   -2.1439 C   0  0  0  0  0  0  0  0  0  0  0  0
   -9.6293   -6.5227   -3.3233 C   0  0  0  0  0  0  0  0  0  0  0  0
   -8.5028   -6.1540   -4.2208 C   0  0  0  0  0  0  0  0  0  0  0  0
   -8.1632   -7.2624   -5.0235 F   0  0  0  0  0  0  0  0  0  0  0  0
   -7.3233   -5.9051   -3.5123 F   0  0  0  0  0  0  0  0  0  0  0  0
   -8.7535   -4.8065   -5.3094 S   0  0  0  0  0  0  0  0  0  0  0  0
  -10.0370   -5.0776   -6.0932 O   0  0  0  0  0  0  0  0  0  0  0  0
   -9.0137   -3.5234   -4.5290 O   0  0  0  0  0  0  0  0  0  0  0  0
   -7.5508   -4.6082   -6.4222 O   0  0  0  0  0  0  0  0  0  0  0  0
  -10.6773   -6.9423   -4.1009 F   0  0  0  0  0  0  0  0  0  0  0  0
  -10.0686   -5.2574   -2.8304 F   0  0  0  0  0  0  0  0  0  0  0  0
   -8.2778   -6.8371   -1.3853 F   0  0  0  0  0  0  0  0  0  0  0  0
   -8.9297   -8.6382   -2.5003 F   0  0  0  0  0  0  0  0  0  0  0  0
  -11.5287   -8.0823   -1.8442 F   0  0  0  0  0  0  0  0  0  0  0  0
  -10.8521   -6.2796   -0.7506 F   0  0  0  0  0  0  0  0  0  0  0  0
  -11.2356   -8.5483    1.0560 C   0  0  0  0  0  0  0  0  0  0  0  0
  -11.0908   -9.4121    2.2254 C   0  0  0  0  0  0  0  0  0  0  0  0
  -12.1847   -9.4132    3.2464 C   0  0  0  0  0  0  0  0  0  0  0  0
  -13.2998  -10.0256    2.6465 F   0  0  0  0  0  0  0  0  0  0  0  0
  -12.5740   -8.1769    3.6665 F   0  0  0  0  0  0  0  0  0  0  0  0
  -11.8462  -10.1592    4.3707 F   0  0  0  0  0  0  0  0  0  0  0  0
  -10.7769  -10.7428    1.9409 F   0  0  0  0  0  0  0  0  0  0  0  0
   -9.9529   -8.9216    2.9445 F   0  0  0  0  0  0  0  0  0  0  0  0
  -11.5594   -7.2316    1.4786 F   0  0  0  0  0  0  0  0  0  0  0  0
  -12.4439   -8.9406    0.4188 F   0  0  0  0  0  0  0  0  0  0  0  0
  -10.0173   -9.7949   -0.4423 F   0  0  0  0  0  0  0  0  0  0  0  0
   -9.0160   -8.1172    0.6508 F   0  0  0  0  0  0  0  0  0  0  0  0
  1  2  1  0
  2  3  1  0
  3  4  1  0
  4  5  1  0
  5  6  1  0
  5  7  1  0
  5  8  1  0
  8  9  2  0
  8 10  2  0
  8 11  1  0
  4 12  1  0
  4 13  1  0
  3 14  1  0
  3 15  1  0
  2 16  1  0
  2 17  1  0
  1 18  1  0
 18 19  1  0
 19 20  1  0
 20 21  1  0
 20 22  1  0
 20 23  1  0
 19 24  1  0
 19 25  1  0
 18 26  1  0
 18 27  1  0
  1 28  1  0
  1 29  1  0
M  END
$$$$
