
     RDKit          3D

 29 28  0  0  0  0  0  0  0  0999 V2000
   -6.4160    3.2817  -13.4881 C   0  0  0  0  0  0  0  0  0  0  0  0
   -6.6793    2.7892  -14.8543 C   0  0  0  0  0  0  0  0  0  0  0  0
   -7.9138    3.2398  -15.5597 C   0  0  0  0  0  0  0  0  0  0  0  0
   -8.1049    2.8938  -16.9723 C   0  0  0  0  0  0  0  0  0  0  0  0
   -9.3225    3.3759  -17.6761 C   0  0  0  0  0  0  0  0  0  0  0  0
   -9.2199    4.7662  -17.8879 F   0  0  0  0  0  0  0  0  0  0  0  0
  -10.4696    3.2618  -16.8846 F   0  0  0  0  0  0  0  0  0  0  0  0
   -9.6863    2.6588  -19.2308 S   0  0  0  0  0  0  0  0  0  0  0  0
   -8.4680    2.8623  -20.1305 O   0  0  0  0  0  0  0  0  0  0  0  0
   -9.8532    1.1492  -19.1031 O   0  0  0  0  0  0  0  0  0  0  0  0
  -10.9695    3.3491  -20.0061 O   0  0  0  0  0  0  0  0  0  0  0  0
   -7.0221    3.1284  -17.7794 F   0  0  0  0  0  0  0  0  0  0  0  0
   -8.2523    1.4750  -17.0201 F   0  0  0  0  0  0  0  0  0  0  0  0
   -8.9593    2.7227  -14.7538 F   0  0  0  0  0  0  0  0  0  0  0  0
   -7.9883    4.6240  -15.3490 F   0  0  0  0  0  0  0  0  0  0  0  0
   -5.6072    3.2490  -15.6559 F   0  0  0  0  0  0  0  0  0  0  0  0
   -6.6372    1.4055  -14.9896 F   0  0  0  0  0  0  0  0  0  0  0  0
   -5.2367    2.7094  -12.7772 C   0  0  0  0  0  0  0  0  0  0  0  0
   -4.9250    3.0642  -11.3945 C   0  0  0  0  0  0  0  0  0  0  0  0
   -5.3584    2.1315  -10.3077 C   0  0  0  0  0  0  0  0  0  0  0  0
   -5.2000    2.8219   -9.0926 F   0  0  0  0  0  0  0  0  0  0  0  0
   -4.6343    0.9806  -10.2214 F   0  0  0  0  0  0  0  0  0  0  0  0
   -6.7003    1.7839  -10.4250 F   0  0  0  0  0  0  0  0  0  0  0  0
   -3.5898    3.3978  -11.1576 F   0  0  0  0  0  0  0  0  0  0  0  0
   -5.6494    4.2693  -11.1196 F   0  0  0  0  0  0  0  0  0  0  0  0
   -5.2593    1.2953  -12.9082 F   0  0  0  0  0  0  0  0  0  0  0  0
   -4.0858    3.0408  -13.5421 F   0  0  0  0  0  0  0  0  0  0  0  0
   -6.2180    4.6698  -13.4675 F   0  0  0  0  0  0  0  0  0  0  0  0
   -7.5104    3.0208  -12.6785 F   0  0  0  0  0  0  0  0  0  0  0  0
  1  2  1  0
  2  3  1  0
  3  4  1  0
  4  5  1  0
  5  6  1  0
  5  7  1  0
  5  8  1  0
  8  9  2  0
  8 10  2  0
  8 11  1  0
  4 12  1  0
  4 13  1  0
  3 14  1  0
  3 15  1  0
  2 16  1  0
  2 17  1  0
  1 18  1  0
 18 19  1  0
 19 20  1  0
 20 21  1  0
 20 22  1  0
 20 23  1  0
 19 24  1  0
 19 25  1  0
 18 26  1  0
 18 27  1  0
  1 28  1  0
  1 29  1  0
M  END
$$$$
