
     RDKit          3D

 29 28  0  0  0  0  0  0  0  0999 V2000
   -6.2016    2.3993  -12.4601 C   0  0  0  0  0  0  0  0  0  0  0  0
   -6.6952    1.0563  -12.8220 C   0  0  0  0  0  0  0  0  0  0  0  0
   -7.8843    0.5068  -12.1088 C   0  0  0  0  0  0  0  0  0  0  0  0
   -8.6186   -0.6210  -12.6925 C   0  0  0  0  0  0  0  0  0  0  0  0
   -9.9730   -0.9476  -12.1737 C   0  0  0  0  0  0  0  0  0  0  0  0
  -10.7923    0.1973  -12.2530 F   0  0  0  0  0  0  0  0  0  0  0  0
   -9.9595   -1.2308  -10.8044 F   0  0  0  0  0  0  0  0  0  0  0  0
  -10.8444   -2.2419  -12.9670 S   0  0  0  0  0  0  0  0  0  0  0  0
  -10.7902   -1.9815  -14.4718 O   0  0  0  0  0  0  0  0  0  0  0  0
  -10.1382   -3.5761  -12.7567 O   0  0  0  0  0  0  0  0  0  0  0  0
  -12.4409   -2.3275  -12.5574 O   0  0  0  0  0  0  0  0  0  0  0  0
   -8.6695   -0.6345  -14.0622 F   0  0  0  0  0  0  0  0  0  0  0  0
   -7.8676   -1.7930  -12.3774 F   0  0  0  0  0  0  0  0  0  0  0  0
   -7.3770    0.1855  -10.8245 F   0  0  0  0  0  0  0  0  0  0  0  0
   -8.7233    1.6040  -11.8673 F   0  0  0  0  0  0  0  0  0  0  0  0
   -7.0806    1.1277  -14.1820 F   0  0  0  0  0  0  0  0  0  0  0  0
   -5.7285    0.0565  -12.7935 F   0  0  0  0  0  0  0  0  0  0  0  0
   -5.4855    3.1661  -13.5198 C   0  0  0  0  0  0  0  0  0  0  0  0
   -5.2262    4.5983  -13.3911 C   0  0  0  0  0  0  0  0  0  0  0  0
   -4.6879    5.3313  -14.5793 C   0  0  0  0  0  0  0  0  0  0  0  0
   -3.5180    4.6587  -14.9760 F   0  0  0  0  0  0  0  0  0  0  0  0
   -4.3525    6.6308  -14.3440 F   0  0  0  0  0  0  0  0  0  0  0  0
   -5.5742    5.3065  -15.6512 F   0  0  0  0  0  0  0  0  0  0  0  0
   -6.2879    5.3465  -12.8782 F   0  0  0  0  0  0  0  0  0  0  0  0
   -4.1896    4.7288  -12.4108 F   0  0  0  0  0  0  0  0  0  0  0  0
   -4.2758    2.4940  -13.8394 F   0  0  0  0  0  0  0  0  0  0  0  0
   -6.2212    3.0018  -14.7245 F   0  0  0  0  0  0  0  0  0  0  0  0
   -7.2442    3.2386  -12.0417 F   0  0  0  0  0  0  0  0  0  0  0  0
   -5.3156    2.3011  -11.3986 F   0  0  0  0  0  0  0  0  0  0  0  0
  1  2  1  0
  2  3  1  0
  3  4  1  0
  4  5  1  0
  5  6  1  0
  5  7  1  0
  5  8  1  0
  8  9  2  0
  8 10  2  0
  8 11  1  0
  4 12  1  0
  4 13  1  0
  3 14  1  0
  3 15  1  0
  2 16  1  0
  2 17  1  0
  1 18  1  0
 18 19  1  0
 19 20  1  0
 20 21  1  0
 20 22  1  0
 20 23  1  0
 19 24  1  0
 19 25  1  0
 18 26  1  0
 18 27  1  0
  1 28  1  0
  1 29  1  0
M  END
$$$$
