
     RDKit          3D

 29 28  0  0  0  0  0  0  0  0999 V2000
   -6.0397    0.1767  -13.4386 C   0  0  0  0  0  0  0  0  0  0  0  0
   -7.4440   -0.2564  -13.5751 C   0  0  0  0  0  0  0  0  0  0  0  0
   -8.2470   -0.5044  -12.3429 C   0  0  0  0  0  0  0  0  0  0  0  0
   -9.6806   -0.7916  -12.4613 C   0  0  0  0  0  0  0  0  0  0  0  0
  -10.5051   -0.8762  -11.2270 C   0  0  0  0  0  0  0  0  0  0  0  0
  -10.4221    0.3440  -10.5253 F   0  0  0  0  0  0  0  0  0  0  0  0
   -9.9921   -1.8010  -10.3122 F   0  0  0  0  0  0  0  0  0  0  0  0
  -12.2090   -1.2250  -11.4238 S   0  0  0  0  0  0  0  0  0  0  0  0
  -12.7885   -0.1786  -12.3748 O   0  0  0  0  0  0  0  0  0  0  0  0
  -12.4085   -2.5661  -12.1201 O   0  0  0  0  0  0  0  0  0  0  0  0
  -13.0807   -1.1300  -10.0255 O   0  0  0  0  0  0  0  0  0  0  0  0
  -10.3536   -0.0220  -13.3744 F   0  0  0  0  0  0  0  0  0  0  0  0
   -9.7813   -2.1092  -13.0005 F   0  0  0  0  0  0  0  0  0  0  0  0
   -7.5562   -1.5684  -11.7098 F   0  0  0  0  0  0  0  0  0  0  0  0
   -8.0042    0.5924  -11.5038 F   0  0  0  0  0  0  0  0  0  0  0  0
   -8.1181    0.7884  -14.2512 F   0  0  0  0  0  0  0  0  0  0  0  0
   -7.6311   -1.3672  -14.3913 F   0  0  0  0  0  0  0  0  0  0  0  0
   -5.4017    0.7944  -14.6365 C   0  0  0  0  0  0  0  0  0  0  0  0
   -4.0231    1.2779  -14.6109 C   0  0  0  0  0  0  0  0  0  0  0  0
   -3.3824    1.6635  -15.9070 C   0  0  0  0  0  0  0  0  0  0  0  0
   -4.0804    2.7864  -16.3870 F   0  0  0  0  0  0  0  0  0  0  0  0
   -3.4329    0.7062  -16.8753 F   0  0  0  0  0  0  0  0  0  0  0  0
   -2.0516    2.0322  -15.7400 F   0  0  0  0  0  0  0  0  0  0  0  0
   -3.7739    2.3022  -13.6950 F   0  0  0  0  0  0  0  0  0  0  0  0
   -3.2251    0.1817  -14.1483 F   0  0  0  0  0  0  0  0  0  0  0  0
   -5.5792   -0.0677  -15.7512 F   0  0  0  0  0  0  0  0  0  0  0  0
   -6.2055    1.9043  -15.0129 F   0  0  0  0  0  0  0  0  0  0  0  0
   -5.8868    1.1216  -12.4138 F   0  0  0  0  0  0  0  0  0  0  0  0
   -5.2462   -0.9095  -13.1039 F   0  0  0  0  0  0  0  0  0  0  0  0
  1  2  1  0
  2  3  1  0
  3  4  1  0
  4  5  1  0
  5  6  1  0
  5  7  1  0
  5  8  1  0
  8  9  2  0
  8 10  2  0
  8 11  1  0
  4 12  1  0
  4 13  1  0
  3 14  1  0
  3 15  1  0
  2 16  1  0
  2 17  1  0
  1 18  1  0
 18 19  1  0
 19 20  1  0
 20 21  1  0
 20 22  1  0
 20 23  1  0
 19 24  1  0
 19 25  1  0
 18 26  1  0
 18 27  1  0
  1 28  1  0
  1 29  1  0
M  END
$$$$
