
     RDKit          3D

 29 28  0  0  0  0  0  0  0  0999 V2000
   -8.2225  -11.3051   -9.0746 C   0  0  0  0  0  0  0  0  0  0  0  0
   -6.9852  -10.6150   -9.4803 C   0  0  0  0  0  0  0  0  0  0  0  0
   -6.1843  -11.6371  -10.3055 C   0  0  0  0  0  0  0  0  0  0  0  0
   -5.0633  -10.8449  -10.9557 C   0  0  0  0  0  0  0  0  0  0  0  0
   -4.4003  -11.7667  -11.9546 C   0  0  0  0  0  0  0  0  0  0  0  0
   -5.1895  -11.8258  -13.0840 F   0  0  0  0  0  0  0  0  0  0  0  0
   -4.2679  -13.0049  -11.4065 F   0  0  0  0  0  0  0  0  0  0  0  0
   -2.8542  -11.0199  -12.4049 S   0  0  0  0  0  0  0  0  0  0  0  0
   -2.2671  -11.7485  -13.5564 O   0  0  0  0  0  0  0  0  0  0  0  0
   -3.1463   -9.6009  -12.8285 O   0  0  0  0  0  0  0  0  0  0  0  0
   -1.8222  -11.0490  -11.1024 O   0  0  0  0  0  0  0  0  0  0  0  0
   -4.1799  -10.4789   -9.9576 F   0  0  0  0  0  0  0  0  0  0  0  0
   -5.5801   -9.7273  -11.5507 F   0  0  0  0  0  0  0  0  0  0  0  0
   -5.6663  -12.6111   -9.4744 F   0  0  0  0  0  0  0  0  0  0  0  0
   -6.9796  -12.1480  -11.2928 F   0  0  0  0  0  0  0  0  0  0  0  0
   -7.1176   -9.5271  -10.2975 F   0  0  0  0  0  0  0  0  0  0  0  0
   -6.1397  -10.2974   -8.4365 F   0  0  0  0  0  0  0  0  0  0  0  0
   -9.1163  -10.6549   -8.0927 C   0  0  0  0  0  0  0  0  0  0  0  0
  -10.4188  -11.3142   -7.8062 C   0  0  0  0  0  0  0  0  0  0  0  0
  -10.9431  -10.6869   -6.5052 C   0  0  0  0  0  0  0  0  0  0  0  0
  -11.1766   -9.3657   -6.7536 F   0  0  0  0  0  0  0  0  0  0  0  0
  -10.0957  -10.8433   -5.4522 F   0  0  0  0  0  0  0  0  0  0  0  0
  -12.1371  -11.3207   -6.2369 F   0  0  0  0  0  0  0  0  0  0  0  0
  -11.4197  -11.0484   -8.7209 F   0  0  0  0  0  0  0  0  0  0  0  0
  -10.2384  -12.6605   -7.6806 F   0  0  0  0  0  0  0  0  0  0  0  0
   -9.2778   -9.3004   -8.3563 F   0  0  0  0  0  0  0  0  0  0  0  0
   -8.4081  -10.6798   -6.8829 F   0  0  0  0  0  0  0  0  0  0  0  0
   -7.8243  -12.5141   -8.4823 F   0  0  0  0  0  0  0  0  0  0  0  0
   -8.9485  -11.6878  -10.1825 F   0  0  0  0  0  0  0  0  0  0  0  0
  1  2  1  0
  2  3  1  0
  3  4  1  0
  4  5  1  0
  5  6  1  0
  5  7  1  0
  5  8  1  0
  8  9  2  0
  8 10  2  0
  8 11  1  0
  4 12  1  0
  4 13  1  0
  3 14  1  0
  3 15  1  0
  2 16  1  0
  2 17  1  0
  1 18  1  0
 18 19  1  0
 19 20  1  0
 20 21  1  0
 20 22  1  0
 20 23  1  0
 19 24  1  0
 19 25  1  0
 18 26  1  0
 18 27  1  0
  1 28  1  0
  1 29  1  0
M  END
$$$$
