
     RDKit          3D

 29 28  0  0  0  0  0  0  0  0999 V2000
   -1.7193  -10.8812   -6.1083 C   0  0  0  0  0  0  0  0  0  0  0  0
   -0.7079  -11.2619   -5.1062 C   0  0  0  0  0  0  0  0  0  0  0  0
    0.5858  -10.5383   -5.5179 C   0  0  0  0  0  0  0  0  0  0  0  0
    1.5943  -10.8583   -4.4283 C   0  0  0  0  0  0  0  0  0  0  0  0
    2.9332  -10.3449   -4.9088 C   0  0  0  0  0  0  0  0  0  0  0  0
    2.8945   -8.9664   -4.9163 F   0  0  0  0  0  0  0  0  0  0  0  0
    3.1736  -10.8169   -6.1620 F   0  0  0  0  0  0  0  0  0  0  0  0
    4.1440  -10.8525   -3.7140 S   0  0  0  0  0  0  0  0  0  0  0  0
    5.4704  -10.3013   -4.0858 O   0  0  0  0  0  0  0  0  0  0  0  0
    3.7343  -10.2706   -2.3829 O   0  0  0  0  0  0  0  0  0  0  0  0
    4.1952  -12.5123   -3.6447 O   0  0  0  0  0  0  0  0  0  0  0  0
    1.6172  -12.2316   -4.2735 F   0  0  0  0  0  0  0  0  0  0  0  0
    1.2055  -10.2659   -3.2586 F   0  0  0  0  0  0  0  0  0  0  0  0
    1.0257  -11.0167   -6.7367 F   0  0  0  0  0  0  0  0  0  0  0  0
    0.3704   -9.1885   -5.5226 F   0  0  0  0  0  0  0  0  0  0  0  0
   -0.9337  -10.8748   -3.8147 F   0  0  0  0  0  0  0  0  0  0  0  0
   -0.3601  -12.5975   -5.1247 F   0  0  0  0  0  0  0  0  0  0  0  0
   -2.9883  -11.6372   -6.1682 C   0  0  0  0  0  0  0  0  0  0  0  0
   -3.8445  -11.4498   -7.3703 C   0  0  0  0  0  0  0  0  0  0  0  0
   -5.1588  -12.1926   -7.0842 C   0  0  0  0  0  0  0  0  0  0  0  0
   -5.9809  -11.9963   -8.1553 F   0  0  0  0  0  0  0  0  0  0  0  0
   -5.7596  -11.7984   -5.9287 F   0  0  0  0  0  0  0  0  0  0  0  0
   -4.8256  -13.5273   -7.0008 F   0  0  0  0  0  0  0  0  0  0  0  0
   -4.2503  -10.1490   -7.5991 F   0  0  0  0  0  0  0  0  0  0  0  0
   -3.2121  -11.9485   -8.4713 F   0  0  0  0  0  0  0  0  0  0  0  0
   -3.7222  -11.5118   -4.9952 F   0  0  0  0  0  0  0  0  0  0  0  0
   -2.6080  -12.9867   -6.1841 F   0  0  0  0  0  0  0  0  0  0  0  0
   -1.1156  -11.0536   -7.3639 F   0  0  0  0  0  0  0  0  0  0  0  0
   -1.9856   -9.5302   -6.0376 F   0  0  0  0  0  0  0  0  0  0  0  0
  1  2  1  0
  2  3  1  0
  3  4  1  0
  4  5  1  0
  5  6  1  0
  5  7  1  0
  5  8  1  0
  8  9  2  0
  8 10  2  0
  8 11  1  0
  4 12  1  0
  4 13  1  0
  3 14  1  0
  3 15  1  0
  2 16  1  0
  2 17  1  0
  1 18  1  0
 18 19  1  0
 19 20  1  0
 20 21  1  0
 20 22  1  0
 20 23  1  0
 19 24  1  0
 19 25  1  0
 18 26  1  0
 18 27  1  0
  1 28  1  0
  1 29  1  0
M  END
$$$$
