
     RDKit          3D

 29 28  0  0  0  0  0  0  0  0999 V2000
  -12.0324  -10.9400   -5.9334 C   0  0  0  0  0  0  0  0  0  0  0  0
  -12.5063  -11.6056   -7.1598 C   0  0  0  0  0  0  0  0  0  0  0  0
  -12.0967  -13.0822   -7.0225 C   0  0  0  0  0  0  0  0  0  0  0  0
  -12.6989  -13.7843   -8.2273 C   0  0  0  0  0  0  0  0  0  0  0  0
  -12.4271  -15.2616   -8.0521 C   0  0  0  0  0  0  0  0  0  0  0  0
  -12.8486  -15.6362   -6.7936 F   0  0  0  0  0  0  0  0  0  0  0  0
  -11.0939  -15.4944   -8.1918 F   0  0  0  0  0  0  0  0  0  0  0  0
  -13.4266  -16.1190   -9.2425 S   0  0  0  0  0  0  0  0  0  0  0  0
  -13.2426  -17.5827   -9.0837 O   0  0  0  0  0  0  0  0  0  0  0  0
  -14.8676  -15.7781   -8.9493 O   0  0  0  0  0  0  0  0  0  0  0  0
  -13.0035  -15.6358  -10.7753 O   0  0  0  0  0  0  0  0  0  0  0  0
  -12.0647  -13.2944   -9.3536 F   0  0  0  0  0  0  0  0  0  0  0  0
  -14.0373  -13.5112   -8.2927 F   0  0  0  0  0  0  0  0  0  0  0  0
  -10.7201  -13.1927   -7.0392 F   0  0  0  0  0  0  0  0  0  0  0  0
  -12.6590  -13.6072   -5.8927 F   0  0  0  0  0  0  0  0  0  0  0  0
  -13.8564  -11.6317   -7.3729 F   0  0  0  0  0  0  0  0  0  0  0  0
  -11.8733  -11.1928   -8.3148 F   0  0  0  0  0  0  0  0  0  0  0  0
  -12.3475   -9.5105   -5.7268 C   0  0  0  0  0  0  0  0  0  0  0  0
  -11.9116   -8.8878   -4.4479 C   0  0  0  0  0  0  0  0  0  0  0  0
  -11.6946   -7.3962   -4.7460 C   0  0  0  0  0  0  0  0  0  0  0  0
  -11.0663   -6.8504   -3.6648 F   0  0  0  0  0  0  0  0  0  0  0  0
  -12.8470   -6.7303   -5.0287 F   0  0  0  0  0  0  0  0  0  0  0  0
  -10.8533   -7.3495   -5.8366 F   0  0  0  0  0  0  0  0  0  0  0  0
  -12.8649   -8.8834   -3.4477 F   0  0  0  0  0  0  0  0  0  0  0  0
  -10.7675   -9.4865   -4.0080 F   0  0  0  0  0  0  0  0  0  0  0  0
  -13.6796   -9.2282   -6.0030 F   0  0  0  0  0  0  0  0  0  0  0  0
  -11.6447   -8.8333   -6.7334 F   0  0  0  0  0  0  0  0  0  0  0  0
  -10.6310  -11.0198   -5.9570 F   0  0  0  0  0  0  0  0  0  0  0  0
  -12.3990  -11.6631   -4.8181 F   0  0  0  0  0  0  0  0  0  0  0  0
  1  2  1  0
  2  3  1  0
  3  4  1  0
  4  5  1  0
  5  6  1  0
  5  7  1  0
  5  8  1  0
  8  9  2  0
  8 10  2  0
  8 11  1  0
  4 12  1  0
  4 13  1  0
  3 14  1  0
  3 15  1  0
  2 16  1  0
  2 17  1  0
  1 18  1  0
 18 19  1  0
 19 20  1  0
 20 21  1  0
 20 22  1  0
 20 23  1  0
 19 24  1  0
 19 25  1  0
 18 26  1  0
 18 27  1  0
  1 28  1  0
  1 29  1  0
M  END
$$$$
