
     RDKit          3D

 29 28  0  0  0  0  0  0  0  0999 V2000
   19.0653   -0.7907    6.9788 C   0  0  0  0  0  0  0  0  0  0  0  0
   18.5456   -1.6112    5.8704 C   0  0  0  0  0  0  0  0  0  0  0  0
   19.2404   -2.9780    5.9969 C   0  0  0  0  0  0  0  0  0  0  0  0
   18.5226   -3.8905    5.0175 C   0  0  0  0  0  0  0  0  0  0  0  0
   19.2530   -5.2145    5.0394 C   0  0  0  0  0  0  0  0  0  0  0  0
   19.2866   -5.6725    6.3397 F   0  0  0  0  0  0  0  0  0  0  0  0
   20.5172   -5.0398    4.5680 F   0  0  0  0  0  0  0  0  0  0  0  0
   18.2888   -6.3561    4.0811 S   0  0  0  0  0  0  0  0  0  0  0  0
   18.7938   -7.7348    4.2949 O   0  0  0  0  0  0  0  0  0  0  0  0
   16.8678   -6.2782    4.5842 O   0  0  0  0  0  0  0  0  0  0  0  0
   18.3719   -5.9419    2.4737 O   0  0  0  0  0  0  0  0  0  0  0  0
   18.6001   -3.3028    3.7688 F   0  0  0  0  0  0  0  0  0  0  0  0
   17.2129   -4.0188    5.3895 F   0  0  0  0  0  0  0  0  0  0  0  0
   20.5742   -2.8616    5.6574 F   0  0  0  0  0  0  0  0  0  0  0  0
   19.0534   -3.4685    7.2589 F   0  0  0  0  0  0  0  0  0  0  0  0
   17.2079   -1.8928    5.8775 F   0  0  0  0  0  0  0  0  0  0  0  0
   18.9092   -1.1703    4.6140 F   0  0  0  0  0  0  0  0  0  0  0  0
   18.7457    0.6524    7.0127 C   0  0  0  0  0  0  0  0  0  0  0  0
   19.3627    1.4683    8.0929 C   0  0  0  0  0  0  0  0  0  0  0  0
   19.0488    2.9349    7.7588 C   0  0  0  0  0  0  0  0  0  0  0  0
   17.7255    3.1397    8.0210 F   0  0  0  0  0  0  0  0  0  0  0  0
   19.3500    3.2712    6.4752 F   0  0  0  0  0  0  0  0  0  0  0  0
   19.8098    3.6890    8.6258 F   0  0  0  0  0  0  0  0  0  0  0  0
   18.8048    1.2943    9.3450 F   0  0  0  0  0  0  0  0  0  0  0  0
   20.7064    1.2371    8.1376 F   0  0  0  0  0  0  0  0  0  0  0  0
   17.3789    0.8829    6.9174 F   0  0  0  0  0  0  0  0  0  0  0  0
   19.2578    1.1673    5.8134 F   0  0  0  0  0  0  0  0  0  0  0  0
   20.4651   -0.8672    6.9042 F   0  0  0  0  0  0  0  0  0  0  0  0
   18.7539   -1.3648    8.1931 F   0  0  0  0  0  0  0  0  0  0  0  0
  1  2  1  0
  2  3  1  0
  3  4  1  0
  4  5  1  0
  5  6  1  0
  5  7  1  0
  5  8  1  0
  8  9  2  0
  8 10  2  0
  8 11  1  0
  4 12  1  0
  4 13  1  0
  3 14  1  0
  3 15  1  0
  2 16  1  0
  2 17  1  0
  1 18  1  0
 18 19  1  0
 19 20  1  0
 20 21  1  0
 20 22  1  0
 20 23  1  0
 19 24  1  0
 19 25  1  0
 18 26  1  0
 18 27  1  0
  1 28  1  0
  1 29  1  0
M  END
$$$$
