
     RDKit          3D

 29 28  0  0  0  0  0  0  0  0999 V2000
   -2.7538  -12.4552   -5.7970 C   0  0  0  0  0  0  0  0  0  0  0  0
   -3.8167  -11.8562   -6.6236 C   0  0  0  0  0  0  0  0  0  0  0  0
   -3.1312  -11.3952   -7.9214 C   0  0  0  0  0  0  0  0  0  0  0  0
   -4.1954  -11.4956   -9.0004 C   0  0  0  0  0  0  0  0  0  0  0  0
   -3.5030  -11.9882  -10.2515 C   0  0  0  0  0  0  0  0  0  0  0  0
   -2.9061  -13.1995   -9.9712 F   0  0  0  0  0  0  0  0  0  0  0  0
   -2.5669  -11.0790  -10.6364 F   0  0  0  0  0  0  0  0  0  0  0  0
   -4.7647  -12.2677  -11.4684 S   0  0  0  0  0  0  0  0  0  0  0  0
   -5.5958  -13.4287  -11.0649 O   0  0  0  0  0  0  0  0  0  0  0  0
   -5.6377  -11.0367  -11.5025 O   0  0  0  0  0  0  0  0  0  0  0  0
   -4.0596  -12.5353  -12.9494 O   0  0  0  0  0  0  0  0  0  0  0  0
   -4.7167  -10.2294   -9.1891 F   0  0  0  0  0  0  0  0  0  0  0  0
   -5.1830  -12.3475   -8.5893 F   0  0  0  0  0  0  0  0  0  0  0  0
   -2.7015  -10.0892   -7.7890 F   0  0  0  0  0  0  0  0  0  0  0  0
   -2.1189  -12.2593   -8.2331 F   0  0  0  0  0  0  0  0  0  0  0  0
   -4.8281  -12.6806   -7.0317 F   0  0  0  0  0  0  0  0  0  0  0  0
   -4.3582  -10.6970   -6.1057 F   0  0  0  0  0  0  0  0  0  0  0  0
   -3.0905  -12.9487   -4.4446 C   0  0  0  0  0  0  0  0  0  0  0  0
   -1.9892  -13.5299   -3.6306 C   0  0  0  0  0  0  0  0  0  0  0  0
   -2.6116  -13.9258   -2.2826 C   0  0  0  0  0  0  0  0  0  0  0  0
   -1.8945  -14.9793   -1.7950 F   0  0  0  0  0  0  0  0  0  0  0  0
   -3.9340  -14.2340   -2.3698 F   0  0  0  0  0  0  0  0  0  0  0  0
   -2.4436  -12.8356   -1.4565 F   0  0  0  0  0  0  0  0  0  0  0  0
   -1.4743  -14.7184   -4.1117 F   0  0  0  0  0  0  0  0  0  0  0  0
   -0.9930  -12.6109   -3.4762 F   0  0  0  0  0  0  0  0  0  0  0  0
   -4.2062  -13.7765   -4.4578 F   0  0  0  0  0  0  0  0  0  0  0  0
   -3.5212  -11.8155   -3.7401 F   0  0  0  0  0  0  0  0  0  0  0  0
   -1.7900  -11.4526   -5.6056 F   0  0  0  0  0  0  0  0  0  0  0  0
   -2.0912  -13.4393   -6.4996 F   0  0  0  0  0  0  0  0  0  0  0  0
  1  2  1  0
  2  3  1  0
  3  4  1  0
  4  5  1  0
  5  6  1  0
  5  7  1  0
  5  8  1  0
  8  9  2  0
  8 10  2  0
  8 11  1  0
  4 12  1  0
  4 13  1  0
  3 14  1  0
  3 15  1  0
  2 16  1  0
  2 17  1  0
  1 18  1  0
 18 19  1  0
 19 20  1  0
 20 21  1  0
 20 22  1  0
 20 23  1  0
 19 24  1  0
 19 25  1  0
 18 26  1  0
 18 27  1  0
  1 28  1  0
  1 29  1  0
M  END
$$$$
