
     RDKit          3D

 25 24  0  0  0  0  0  0  0  0999 V2000
   -5.1681    8.5356   -5.1607 C   0  0  0  0  0  0  0  0  0  0  0  0
   -5.7458    8.4126   -6.2999 O   0  0  0  0  0  0  0  0  0  0  0  0
   -4.9616    7.4153   -4.2369 C   0  0  0  0  0  0  0  0  0  0  0  0
   -4.9935    6.0466   -4.7642 C   0  0  0  0  0  0  0  0  0  0  0  0
   -4.6920    4.8643   -3.9716 C   0  0  0  0  0  0  0  0  0  0  0  0
   -5.1151    3.5053   -4.4764 C   0  0  0  0  0  0  0  0  0  0  0  0
   -5.0198    2.5696   -3.2821 C   0  0  0  0  0  0  0  0  0  0  0  0
   -5.8997    1.3933   -3.2735 C   0  0  0  0  0  0  0  0  0  0  0  0
   -5.9018    0.4652   -2.1197 C   0  0  0  0  0  0  0  0  0  0  0  0
   -6.3624   -0.8047   -2.3575 F   0  0  0  0  0  0  0  0  0  0  0  0
   -4.6660    0.3889   -1.4921 F   0  0  0  0  0  0  0  0  0  0  0  0
   -6.8160    1.0011   -1.1900 F   0  0  0  0  0  0  0  0  0  0  0  0
   -5.7038    0.5837   -4.4150 F   0  0  0  0  0  0  0  0  0  0  0  0
   -7.2390    1.8381   -3.3920 F   0  0  0  0  0  0  0  0  0  0  0  0
   -3.6831    2.2629   -3.1014 F   0  0  0  0  0  0  0  0  0  0  0  0
   -5.4118    3.3636   -2.1865 F   0  0  0  0  0  0  0  0  0  0  0  0
   -4.2120    3.0395   -5.4273 F   0  0  0  0  0  0  0  0  0  0  0  0
   -6.3831    3.6165   -4.9803 F   0  0  0  0  0  0  0  0  0  0  0  0
   -5.3073    4.9744   -2.7017 F   0  0  0  0  0  0  0  0  0  0  0  0
   -3.3407    4.7384   -3.6517 F   0  0  0  0  0  0  0  0  0  0  0  0
   -6.3052    5.8550   -5.2899 F   0  0  0  0  0  0  0  0  0  0  0  0
   -4.1854    5.9742   -5.9372 F   0  0  0  0  0  0  0  0  0  0  0  0
   -5.8703    7.5712   -3.1596 F   0  0  0  0  0  0  0  0  0  0  0  0
   -3.7251    7.6711   -3.6100 F   0  0  0  0  0  0  0  0  0  0  0  0
   -4.7405    9.8395   -4.8562 O   0  0  0  0  0  0  0  0  0  0  0  0
  1  2  2  0
  1  3  1  0
  3  4  1  0
  4  5  1  0
  5  6  1  0
  6  7  1  0
  7  8  1  0
  8  9  1  0
  9 10  1  0
  9 11  1  0
  9 12  1  0
  8 13  1  0
  8 14  1  0
  7 15  1  0
  7 16  1  0
  6 17  1  0
  6 18  1  0
  5 19  1  0
  5 20  1  0
  4 21  1  0
  4 22  1  0
  3 23  1  0
  3 24  1  0
  1 25  1  0
M  END
$$$$
