
     RDKit          3D

 25 24  0  0  0  0  0  0  0  0999 V2000
   -4.9225    3.0732   -2.7123 C   0  0  0  0  0  0  0  0  0  0  0  0
   -5.5119    4.1727   -2.4116 O   0  0  0  0  0  0  0  0  0  0  0  0
   -5.3064    1.7737   -2.1511 C   0  0  0  0  0  0  0  0  0  0  0  0
   -4.7741    1.3819   -0.8413 C   0  0  0  0  0  0  0  0  0  0  0  0
   -5.0349    0.0970   -0.2105 C   0  0  0  0  0  0  0  0  0  0  0  0
   -4.3452   -0.2450    1.0887 C   0  0  0  0  0  0  0  0  0  0  0  0
   -4.5343   -1.7414    1.2789 C   0  0  0  0  0  0  0  0  0  0  0  0
   -3.7648   -2.3889    2.3496 C   0  0  0  0  0  0  0  0  0  0  0  0
   -3.7464   -3.8643    2.4747 C   0  0  0  0  0  0  0  0  0  0  0  0
   -4.9414   -4.5091    2.2811 F   0  0  0  0  0  0  0  0  0  0  0  0
   -2.7772   -4.4569    1.6770 F   0  0  0  0  0  0  0  0  0  0  0  0
   -3.4143   -4.1376    3.8172 F   0  0  0  0  0  0  0  0  0  0  0  0
   -4.1286   -1.9015    3.6251 F   0  0  0  0  0  0  0  0  0  0  0  0
   -2.4064   -2.0131    2.2116 F   0  0  0  0  0  0  0  0  0  0  0  0
   -5.8947   -1.9813    1.3514 F   0  0  0  0  0  0  0  0  0  0  0  0
   -4.0806   -2.3053    0.0704 F   0  0  0  0  0  0  0  0  0  0  0  0
   -4.9836    0.3814    2.1550 F   0  0  0  0  0  0  0  0  0  0  0  0
   -3.0324    0.1281    0.9824 F   0  0  0  0  0  0  0  0  0  0  0  0
   -4.6644   -0.9479   -1.0905 F   0  0  0  0  0  0  0  0  0  0  0  0
   -6.3893   -0.1496    0.0109 F   0  0  0  0  0  0  0  0  0  0  0  0
   -3.3564    1.5026   -0.9377 F   0  0  0  0  0  0  0  0  0  0  0  0
   -5.0972    2.3861    0.1186 F   0  0  0  0  0  0  0  0  0  0  0  0
   -5.0377    0.7843   -3.1307 F   0  0  0  0  0  0  0  0  0  0  0  0
   -6.7159    1.7791   -2.1265 F   0  0  0  0  0  0  0  0  0  0  0  0
   -3.8672    3.2042   -3.6315 O   0  0  0  0  0  0  0  0  0  0  0  0
  1  2  2  0
  1  3  1  0
  3  4  1  0
  4  5  1  0
  5  6  1  0
  6  7  1  0
  7  8  1  0
  8  9  1  0
  9 10  1  0
  9 11  1  0
  9 12  1  0
  8 13  1  0
  8 14  1  0
  7 15  1  0
  7 16  1  0
  6 17  1  0
  6 18  1  0
  5 19  1  0
  5 20  1  0
  4 21  1  0
  4 22  1  0
  3 23  1  0
  3 24  1  0
  1 25  1  0
M  END
$$$$
