
     RDKit          3D

 25 24  0  0  0  0  0  0  0  0999 V2000
   -5.5651    3.2125   -3.3830 C   0  0  0  0  0  0  0  0  0  0  0  0
   -4.6534    3.4396   -4.2570 O   0  0  0  0  0  0  0  0  0  0  0  0
   -5.7424    1.9153   -2.7220 C   0  0  0  0  0  0  0  0  0  0  0  0
   -4.9649    1.6237   -1.5126 C   0  0  0  0  0  0  0  0  0  0  0  0
   -5.1187    0.4125   -0.7211 C   0  0  0  0  0  0  0  0  0  0  0  0
   -4.2174    0.1847    0.4690 C   0  0  0  0  0  0  0  0  0  0  0  0
   -4.5346   -1.2153    0.9693 C   0  0  0  0  0  0  0  0  0  0  0  0
   -3.7097   -1.7447    2.0634 C   0  0  0  0  0  0  0  0  0  0  0  0
   -3.7150   -3.1923    2.3755 C   0  0  0  0  0  0  0  0  0  0  0  0
   -4.9232   -3.8343    2.2777 F   0  0  0  0  0  0  0  0  0  0  0  0
   -2.7661   -3.8995    1.6501 F   0  0  0  0  0  0  0  0  0  0  0  0
   -3.3711   -3.2986    3.7384 F   0  0  0  0  0  0  0  0  0  0  0  0
   -3.9773   -1.0891    3.2863 F   0  0  0  0  0  0  0  0  0  0  0  0
   -2.3557   -1.4303    1.7927 F   0  0  0  0  0  0  0  0  0  0  0  0
   -5.8931   -1.2661    1.2250 F   0  0  0  0  0  0  0  0  0  0  0  0
   -4.2937   -2.0448   -0.1435 F   0  0  0  0  0  0  0  0  0  0  0  0
   -4.5422    1.0643    1.4974 F   0  0  0  0  0  0  0  0  0  0  0  0
   -2.9215    0.3331    0.0534 F   0  0  0  0  0  0  0  0  0  0  0  0
   -4.9092   -0.7211   -1.5424 F   0  0  0  0  0  0  0  0  0  0  0  0
   -6.4159    0.2176   -0.2484 F   0  0  0  0  0  0  0  0  0  0  0  0
   -3.5936    1.6798   -1.9001 F   0  0  0  0  0  0  0  0  0  0  0  0
   -5.0678    2.7227   -0.6094 F   0  0  0  0  0  0  0  0  0  0  0  0
   -5.5663    0.9046   -3.7010 F   0  0  0  0  0  0  0  0  0  0  0  0
   -7.1229    1.8185   -2.4534 F   0  0  0  0  0  0  0  0  0  0  0  0
   -6.3942    4.3115   -3.0993 O   0  0  0  0  0  0  0  0  0  0  0  0
  1  2  2  0
  1  3  1  0
  3  4  1  0
  4  5  1  0
  5  6  1  0
  6  7  1  0
  7  8  1  0
  8  9  1  0
  9 10  1  0
  9 11  1  0
  9 12  1  0
  8 13  1  0
  8 14  1  0
  7 15  1  0
  7 16  1  0
  6 17  1  0
  6 18  1  0
  5 19  1  0
  5 20  1  0
  4 21  1  0
  4 22  1  0
  3 23  1  0
  3 24  1  0
  1 25  1  0
M  END
$$$$
