
     RDKit          3D

 25 24  0  0  0  0  0  0  0  0999 V2000
   -7.4361    3.3881   -4.2347 C   0  0  0  0  0  0  0  0  0  0  0  0
   -8.3307    4.2200   -3.8417 O   0  0  0  0  0  0  0  0  0  0  0  0
   -7.2205    2.0803   -3.6068 C   0  0  0  0  0  0  0  0  0  0  0  0
   -6.0798    1.9085   -2.7004 C   0  0  0  0  0  0  0  0  0  0  0  0
   -5.8347    0.7029   -1.9237 C   0  0  0  0  0  0  0  0  0  0  0  0
   -4.8664    0.7506   -0.7658 C   0  0  0  0  0  0  0  0  0  0  0  0
   -5.1062   -0.5223    0.0300 C   0  0  0  0  0  0  0  0  0  0  0  0
   -4.2236   -0.7791    1.1758 C   0  0  0  0  0  0  0  0  0  0  0  0
   -4.2275   -2.0996    1.8458 C   0  0  0  0  0  0  0  0  0  0  0  0
   -4.2045   -2.0893    3.2172 F   0  0  0  0  0  0  0  0  0  0  0  0
   -5.2658   -2.9146    1.4162 F   0  0  0  0  0  0  0  0  0  0  0  0
   -3.0189   -2.7261    1.4798 F   0  0  0  0  0  0  0  0  0  0  0  0
   -4.4093    0.1720    2.2042 F   0  0  0  0  0  0  0  0  0  0  0  0
   -2.8846   -0.5801    0.7598 F   0  0  0  0  0  0  0  0  0  0  0  0
   -6.4521   -0.5657    0.3467 F   0  0  0  0  0  0  0  0  0  0  0  0
   -4.8668   -1.5593   -0.8929 F   0  0  0  0  0  0  0  0  0  0  0  0
   -5.1707    1.8164    0.0759 F   0  0  0  0  0  0  0  0  0  0  0  0
   -3.5996    0.8422   -1.2764 F   0  0  0  0  0  0  0  0  0  0  0  0
   -5.3220   -0.3102   -2.7688 F   0  0  0  0  0  0  0  0  0  0  0  0
   -6.9960    0.1234   -1.4142 F   0  0  0  0  0  0  0  0  0  0  0  0
   -4.9113    2.1237   -3.4890 F   0  0  0  0  0  0  0  0  0  0  0  0
   -6.0333    3.0038   -1.7880 F   0  0  0  0  0  0  0  0  0  0  0  0
   -7.2098    1.1044   -4.6354 F   0  0  0  0  0  0  0  0  0  0  0  0
   -8.4265    1.7828   -2.9401 F   0  0  0  0  0  0  0  0  0  0  0  0
   -6.6659    3.8254   -5.3262 O   0  0  0  0  0  0  0  0  0  0  0  0
  1  2  2  0
  1  3  1  0
  3  4  1  0
  4  5  1  0
  5  6  1  0
  6  7  1  0
  7  8  1  0
  8  9  1  0
  9 10  1  0
  9 11  1  0
  9 12  1  0
  8 13  1  0
  8 14  1  0
  7 15  1  0
  7 16  1  0
  6 17  1  0
  6 18  1  0
  5 19  1  0
  5 20  1  0
  4 21  1  0
  4 22  1  0
  3 23  1  0
  3 24  1  0
  1 25  1  0
M  END
$$$$
