
     RDKit          3D

 25 24  0  0  0  0  0  0  0  0999 V2000
   -2.3506    5.6462   -6.0548 C   0  0  0  0  0  0  0  0  0  0  0  0
   -2.6672    4.7441   -6.9108 O   0  0  0  0  0  0  0  0  0  0  0  0
   -3.2959    6.1974   -5.0782 C   0  0  0  0  0  0  0  0  0  0  0  0
   -4.5455    5.4750   -4.8154 C   0  0  0  0  0  0  0  0  0  0  0  0
   -4.6094    4.1700   -4.1753 C   0  0  0  0  0  0  0  0  0  0  0  0
   -5.9425    3.4728   -4.0439 C   0  0  0  0  0  0  0  0  0  0  0  0
   -5.6426    2.1123   -3.4356 C   0  0  0  0  0  0  0  0  0  0  0  0
   -6.7793    1.3362   -2.9225 C   0  0  0  0  0  0  0  0  0  0  0  0
   -7.9604    1.0791   -3.7779 C   0  0  0  0  0  0  0  0  0  0  0  0
   -7.7136    0.5428   -5.0159 F   0  0  0  0  0  0  0  0  0  0  0  0
   -8.9283    0.3167   -3.1386 F   0  0  0  0  0  0  0  0  0  0  0  0
   -8.5272    2.3410   -4.0494 F   0  0  0  0  0  0  0  0  0  0  0  0
   -7.2879    1.8821   -1.7224 F   0  0  0  0  0  0  0  0  0  0  0  0
   -6.3098    0.0542   -2.5464 F   0  0  0  0  0  0  0  0  0  0  0  0
   -4.8602    1.4172   -4.3402 F   0  0  0  0  0  0  0  0  0  0  0  0
   -4.8278    2.4011   -2.3233 F   0  0  0  0  0  0  0  0  0  0  0  0
   -6.4932    3.2406   -5.3008 F   0  0  0  0  0  0  0  0  0  0  0  0
   -6.7525    4.2516   -3.2619 F   0  0  0  0  0  0  0  0  0  0  0  0
   -4.1324    4.2691   -2.8464 F   0  0  0  0  0  0  0  0  0  0  0  0
   -3.7516    3.2289   -4.7433 F   0  0  0  0  0  0  0  0  0  0  0  0
   -5.3505    6.3496   -4.0275 F   0  0  0  0  0  0  0  0  0  0  0  0
   -5.2979    5.3796   -6.0232 F   0  0  0  0  0  0  0  0  0  0  0  0
   -3.5486    7.5460   -5.4360 F   0  0  0  0  0  0  0  0  0  0  0  0
   -2.5568    6.3490   -3.8874 F   0  0  0  0  0  0  0  0  0  0  0  0
   -1.0135    6.0750   -6.1200 O   0  0  0  0  0  0  0  0  0  0  0  0
  1  2  2  0
  1  3  1  0
  3  4  1  0
  4  5  1  0
  5  6  1  0
  6  7  1  0
  7  8  1  0
  8  9  1  0
  9 10  1  0
  9 11  1  0
  9 12  1  0
  8 13  1  0
  8 14  1  0
  7 15  1  0
  7 16  1  0
  6 17  1  0
  6 18  1  0
  5 19  1  0
  5 20  1  0
  4 21  1  0
  4 22  1  0
  3 23  1  0
  3 24  1  0
  1 25  1  0
M  END
$$$$
