
     RDKit          3D

  5  4  0  0  0  0  0  0  0  0999 V2000
   -8.7757    0.8340    7.3693 C   0  0  0  0  0  0  0  0  0  0  0  0
   -8.9357    0.6152    8.8172 C   0  0  0  0  0  0  0  0  0  0  0  0
   -7.9265    0.4284    9.5423 O   0  0  0  0  0  0  0  0  0  0  0  0
  -10.2150    0.6069    9.4320 O   0  0  0  0  0  0  0  0  0  0  0  0
   -9.9636    0.3676    6.8019 F   0  0  0  0  0  0  0  0  0  0  0  0
  1  2  1  0
  2  3  2  0
  2  4  1  0
  1  5  1  0
M  END
$$$$
