
     RDKit          3D

  5  4  0  0  0  0  0  0  0  0999 V2000
   14.1539    3.3528    5.5269 C   0  0  0  0  0  0  0  0  0  0  0  0
   14.1938    2.1538    4.6722 C   0  0  0  0  0  0  0  0  0  0  0  0
   13.8477    1.0377    5.1345 O   0  0  0  0  0  0  0  0  0  0  0  0
   14.6191    2.2176    3.3195 O   0  0  0  0  0  0  0  0  0  0  0  0
   13.2674    3.0306    6.5569 F   0  0  0  0  0  0  0  0  0  0  0  0
  1  2  1  0
  2  3  2  0
  2  4  1  0
  1  5  1  0
M  END
$$$$
