
     RDKit          3D

  5  4  0  0  0  0  0  0  0  0999 V2000
    4.8323   -2.6253   -3.8792 C   0  0  0  0  0  0  0  0  0  0  0  0
    5.7486   -2.8073   -5.0181 C   0  0  0  0  0  0  0  0  0  0  0  0
    5.4535   -3.6040   -5.9441 O   0  0  0  0  0  0  0  0  0  0  0  0
    6.9767   -2.1011   -5.1058 O   0  0  0  0  0  0  0  0  0  0  0  0
    3.5939   -2.3366   -4.4567 F   0  0  0  0  0  0  0  0  0  0  0  0
  1  2  1  0
  2  3  2  0
  2  4  1  0
  1  5  1  0
M  END
$$$$
