
     RDKit          3D

 13 13  0  0  0  0  0  0  0  0999 V2000
   12.5376  -49.9470   31.5670 C   0  0  0  0  0  0  0  0  0  0  0  0
   11.7521  -51.0498   30.9328 C   0  0  0  0  0  0  0  0  0  0  0  0
   10.4825  -51.0435   30.9508 O   0  0  0  0  0  0  0  0  0  0  0  0
   12.4781  -52.0692   30.3303 O   0  0  0  0  0  0  0  0  0  0  0  0
   11.8991  -53.2784   29.9653 C   0  0  0  0  0  0  0  0  0  0  0  0
   10.6695  -53.5902   30.5146 C   0  0  0  0  0  0  0  0  0  0  0  0
   10.0602  -54.7867   30.1751 C   0  0  0  0  0  0  0  0  0  0  0  0
   10.6634  -55.6778   29.2927 C   0  0  0  0  0  0  0  0  0  0  0  0
   11.8983  -55.3595   28.7440 C   0  0  0  0  0  0  0  0  0  0  0  0
   12.4981  -54.1614   29.0901 C   0  0  0  0  0  0  0  0  0  0  0  0
   13.7939  -53.8062   28.5269 C   0  0  0  0  0  0  0  0  0  0  0  0
   14.2873  -52.6746   28.7747 O   0  0  0  0  0  0  0  0  0  0  0  0
   14.5146  -54.6642   27.7238 O   0  0  0  0  0  0  0  0  0  0  0  0
  1  2  1  0
  2  3  2  0
  2  4  1  0
  4  5  1  0
  5  6  2  0
  6  7  1  0
  7  8  2  0
  8  9  1  0
  9 10  2  0
 10 11  1  0
 11 12  2  0
 11 13  1  0
 10  5  1  0
M  END
$$$$
