
     RDKit          3D

 13 13  0  0  0  0  0  0  0  0999 V2000
   37.7642  -45.5808   12.9298 C   0  0  0  0  0  0  0  0  0  0  0  0
   37.3282  -46.3026   14.1644 C   0  0  0  0  0  0  0  0  0  0  0  0
   36.4822  -47.2476   14.1060 O   0  0  0  0  0  0  0  0  0  0  0  0
   37.8923  -45.8881   15.3641 O   0  0  0  0  0  0  0  0  0  0  0  0
   37.3448  -46.2210   16.5970 C   0  0  0  0  0  0  0  0  0  0  0  0
   36.0300  -46.6470   16.6187 C   0  0  0  0  0  0  0  0  0  0  0  0
   35.4486  -46.9879   17.8286 C   0  0  0  0  0  0  0  0  0  0  0  0
   36.1641  -46.9090   19.0196 C   0  0  0  0  0  0  0  0  0  0  0  0
   37.4843  -46.4805   18.9919 C   0  0  0  0  0  0  0  0  0  0  0  0
   38.0551  -46.1424   17.7775 C   0  0  0  0  0  0  0  0  0  0  0  0
   39.4391  -45.6901   17.7240 C   0  0  0  0  0  0  0  0  0  0  0  0
   40.0443  -45.6789   16.6200 O   0  0  0  0  0  0  0  0  0  0  0  0
   40.1258  -45.2680   18.8424 O   0  0  0  0  0  0  0  0  0  0  0  0
  1  2  1  0
  2  3  2  0
  2  4  1  0
  4  5  1  0
  5  6  2  0
  6  7  1  0
  7  8  2  0
  8  9  1  0
  9 10  2  0
 10 11  1  0
 11 12  2  0
 11 13  1  0
 10  5  1  0
M  END
$$$$
