
     RDKit          3D

 13 13  0  0  0  0  0  0  0  0999 V2000
   19.8029  -45.4899   15.7496 C   0  0  0  0  0  0  0  0  0  0  0  0
   18.6837  -45.4430   14.7595 C   0  0  0  0  0  0  0  0  0  0  0  0
   17.7191  -44.6291   14.8996 O   0  0  0  0  0  0  0  0  0  0  0  0
   18.7555  -46.3274   13.6909 O   0  0  0  0  0  0  0  0  0  0  0  0
   17.7275  -46.4601   12.7655 C   0  0  0  0  0  0  0  0  0  0  0  0
   16.6185  -45.6499   12.9213 C   0  0  0  0  0  0  0  0  0  0  0  0
   15.5728  -45.7527   12.0190 C   0  0  0  0  0  0  0  0  0  0  0  0
   15.6199  -46.6555   10.9611 C   0  0  0  0  0  0  0  0  0  0  0  0
   16.7362  -47.4667   10.8093 C   0  0  0  0  0  0  0  0  0  0  0  0
   17.7752  -47.3557   11.7167 C   0  0  0  0  0  0  0  0  0  0  0  0
   18.9567  -48.1967   11.5775 C   0  0  0  0  0  0  0  0  0  0  0  0
   19.9777  -47.9494   12.2717 O   0  0  0  0  0  0  0  0  0  0  0  0
   19.0089  -49.2656   10.7085 O   0  0  0  0  0  0  0  0  0  0  0  0
  1  2  1  0
  2  3  2  0
  2  4  1  0
  4  5  1  0
  5  6  2  0
  6  7  1  0
  7  8  2  0
  8  9  1  0
  9 10  2  0
 10 11  1  0
 11 12  2  0
 11 13  1  0
 10  5  1  0
M  END
$$$$
