
     RDKit          3D

 13 13  0  0  0  0  0  0  0  0999 V2000
   23.4423  -33.1782   32.3661 C   0  0  0  0  0  0  0  0  0  0  0  0
   23.5381  -33.1836   30.8741 C   0  0  0  0  0  0  0  0  0  0  0  0
   22.5226  -33.4326   30.1537 O   0  0  0  0  0  0  0  0  0  0  0  0
   24.7834  -32.9047   30.3257 O   0  0  0  0  0  0  0  0  0  0  0  0
   25.1733  -33.3884   29.0828 C   0  0  0  0  0  0  0  0  0  0  0  0
   24.8758  -34.7055   28.7873 C   0  0  0  0  0  0  0  0  0  0  0  0
   25.2482  -35.2244   27.5583 C   0  0  0  0  0  0  0  0  0  0  0  0
   25.9149  -34.4440   26.6187 C   0  0  0  0  0  0  0  0  0  0  0  0
   26.2111  -33.1218   26.9208 C   0  0  0  0  0  0  0  0  0  0  0  0
   25.8344  -32.6137   28.1517 C   0  0  0  0  0  0  0  0  0  0  0  0
   26.1346  -31.2289   28.4908 C   0  0  0  0  0  0  0  0  0  0  0  0
   26.0601  -30.8555   29.6909 O   0  0  0  0  0  0  0  0  0  0  0  0
   26.5016  -30.2958   27.5447 O   0  0  0  0  0  0  0  0  0  0  0  0
  1  2  1  0
  2  3  2  0
  2  4  1  0
  4  5  1  0
  5  6  2  0
  6  7  1  0
  7  8  2  0
  8  9  1  0
  9 10  2  0
 10 11  1  0
 11 12  2  0
 11 13  1  0
 10  5  1  0
M  END
$$$$
