
     RDKit          3D

 13 13  0  0  0  0  0  0  0  0999 V2000
   24.8548  -67.6185   14.5496 C   0  0  0  0  0  0  0  0  0  0  0  0
   25.7150  -66.4284   14.2686 C   0  0  0  0  0  0  0  0  0  0  0  0
   25.4379  -65.2899   14.7579 O   0  0  0  0  0  0  0  0  0  0  0  0
   26.8204  -66.6335   13.4529 O   0  0  0  0  0  0  0  0  0  0  0  0
   27.5431  -65.5821   12.9023 C   0  0  0  0  0  0  0  0  0  0  0  0
   26.9953  -64.3159   12.9877 C   0  0  0  0  0  0  0  0  0  0  0  0
   27.6856  -63.2420   12.4505 C   0  0  0  0  0  0  0  0  0  0  0  0
   28.9179  -63.4160   11.8281 C   0  0  0  0  0  0  0  0  0  0  0  0
   29.4634  -64.6899   11.7452 C   0  0  0  0  0  0  0  0  0  0  0  0
   28.7651  -65.7557   12.2852 C   0  0  0  0  0  0  0  0  0  0  0  0
   29.3178  -67.1017   12.2100 C   0  0  0  0  0  0  0  0  0  0  0  0
   28.6691  -68.0652   12.6959 O   0  0  0  0  0  0  0  0  0  0  0  0
   30.5355  -67.3723   11.6231 O   0  0  0  0  0  0  0  0  0  0  0  0
  1  2  1  0
  2  3  2  0
  2  4  1  0
  4  5  1  0
  5  6  2  0
  6  7  1  0
  7  8  2  0
  8  9  1  0
  9 10  2  0
 10 11  1  0
 11 12  2  0
 11 13  1  0
 10  5  1  0
M  END
$$$$
