
     RDKit          3D

 14 15  0  0  0  0  0  0  0  0999 V2000
    7.2438  -48.6252    5.4449 C   0  0  0  0  0  0  0  0  0  0  0  0
    8.1284  -49.8643    5.4493 C   0  0  0  0  0  0  0  0  0  0  0  0
    8.6773  -49.3977    4.1672 N   0  0  0  0  0  0  0  0  0  0  0  0
    7.4459  -48.7080    3.9721 C   0  0  0  0  0  0  0  0  0  0  0  0
    6.8249  -48.3408    2.9186 O   0  0  0  0  0  0  0  0  0  0  0  0
   10.0044  -49.9921    4.1142 C   0  0  0  0  0  0  0  0  0  0  0  0
   10.4235  -50.0346    5.5594 C   0  0  0  0  0  0  0  0  0  0  0  0
   11.6356  -50.2234    6.0515 C   0  0  0  0  0  0  0  0  0  0  0  0
   11.9060  -50.0837    7.5069 C   0  0  0  0  0  0  0  0  0  0  0  0
   13.2700  -50.2689    7.7540 O   0  0  0  0  0  0  0  0  0  0  0  0
    9.2474  -49.8302    6.2763 O   0  0  0  0  0  0  0  0  0  0  0  0
    9.9709  -51.3452    3.5074 C   0  0  0  0  0  0  0  0  0  0  0  0
   10.3339  -52.3882    4.0835 O   0  0  0  0  0  0  0  0  0  0  0  0
    9.4995  -51.4416    2.2055 O   0  0  0  0  0  0  0  0  0  0  0  0
  1  2  1  0
  2  3  1  0
  3  4  1  0
  4  5  2  0
  3  6  1  0
  6  7  1  0
  7  8  2  3
  8  9  1  0
  9 10  1  0
  7 11  1  0
  6 12  1  0
 12 13  2  0
 12 14  1  0
  4  1  1  0
 11  2  1  0
M  END
$$$$
