
     RDKit          3D

 14 15  0  0  0  0  0  0  0  0999 V2000
   35.4594  -37.5498   25.4733 C   0  0  0  0  0  0  0  0  0  0  0  0
   34.4657  -36.4093   25.3018 C   0  0  0  0  0  0  0  0  0  0  0  0
   35.4278  -35.7965   24.3737 N   0  0  0  0  0  0  0  0  0  0  0  0
   36.4458  -36.5098   25.0701 C   0  0  0  0  0  0  0  0  0  0  0  0
   37.6912  -36.2839   25.2378 O   0  0  0  0  0  0  0  0  0  0  0  0
   34.6031  -34.9709   23.5045 C   0  0  0  0  0  0  0  0  0  0  0  0
   33.3079  -35.7343   23.4276 C   0  0  0  0  0  0  0  0  0  0  0  0
   32.3197  -35.5782   22.5639 C   0  0  0  0  0  0  0  0  0  0  0  0
   31.0760  -36.3872   22.6624 C   0  0  0  0  0  0  0  0  0  0  0  0
   30.5727  -36.6380   21.3820 O   0  0  0  0  0  0  0  0  0  0  0  0
   33.3736  -36.6513   24.4734 O   0  0  0  0  0  0  0  0  0  0  0  0
   34.4118  -33.6113   24.0659 C   0  0  0  0  0  0  0  0  0  0  0  0
   33.3354  -32.9850   24.0519 O   0  0  0  0  0  0  0  0  0  0  0  0
   35.5187  -33.0061   24.6447 O   0  0  0  0  0  0  0  0  0  0  0  0
  1  2  1  0
  2  3  1  0
  3  4  1  0
  4  5  2  0
  3  6  1  0
  6  7  1  0
  7  8  2  3
  8  9  1  0
  9 10  1  0
  7 11  1  0
  6 12  1  0
 12 13  2  0
 12 14  1  0
  4  1  1  0
 11  2  1  0
M  END
$$$$
