
     RDKit          3D

 14 15  0  0  0  0  0  0  0  0999 V2000
   15.2287  -39.8756   36.9968 C   0  0  0  0  0  0  0  0  0  0  0  0
   15.4677  -40.6418   38.2904 C   0  0  0  0  0  0  0  0  0  0  0  0
   15.0872  -41.8616   37.5623 N   0  0  0  0  0  0  0  0  0  0  0  0
   14.3282  -41.0226   36.6963 C   0  0  0  0  0  0  0  0  0  0  0  0
   13.2948  -41.2401   35.9785 O   0  0  0  0  0  0  0  0  0  0  0  0
   15.7669  -42.9285   38.2814 C   0  0  0  0  0  0  0  0  0  0  0  0
   17.0275  -42.2679   38.7720 C   0  0  0  0  0  0  0  0  0  0  0  0
   18.1210  -42.8443   39.2397 C   0  0  0  0  0  0  0  0  0  0  0  0
   19.2559  -42.0358   39.7585 C   0  0  0  0  0  0  0  0  0  0  0  0
   20.1124  -41.6943   38.7071 O   0  0  0  0  0  0  0  0  0  0  0  0
   16.7930  -40.9030   38.6262 O   0  0  0  0  0  0  0  0  0  0  0  0
   14.9403  -43.4434   39.4002 C   0  0  0  0  0  0  0  0  0  0  0  0
   15.3481  -43.6030   40.5662 O   0  0  0  0  0  0  0  0  0  0  0  0
   13.6212  -43.7663   39.1137 O   0  0  0  0  0  0  0  0  0  0  0  0
  1  2  1  0
  2  3  1  0
  3  4  1  0
  4  5  2  0
  3  6  1  0
  6  7  1  0
  7  8  2  3
  8  9  1  0
  9 10  1  0
  7 11  1  0
  6 12  1  0
 12 13  2  0
 12 14  1  0
  4  1  1  0
 11  2  1  0
M  END
$$$$
