
     RDKit          3D

 14 15  0  0  0  0  0  0  0  0999 V2000
   11.3677  -50.5592   33.8048 C   0  0  0  0  0  0  0  0  0  0  0  0
   11.1899  -50.9315   32.3394 C   0  0  0  0  0  0  0  0  0  0  0  0
   11.7444  -49.6115   32.0037 N   0  0  0  0  0  0  0  0  0  0  0  0
   11.2771  -49.1706   33.2754 C   0  0  0  0  0  0  0  0  0  0  0  0
   10.9353  -48.0208   33.7131 O   0  0  0  0  0  0  0  0  0  0  0  0
   12.3146  -49.7950   30.6777 C   0  0  0  0  0  0  0  0  0  0  0  0
   12.7740  -51.2286   30.6929 C   0  0  0  0  0  0  0  0  0  0  0  0
   13.5987  -51.8293   29.8527 C   0  0  0  0  0  0  0  0  0  0  0  0
   14.0639  -53.2209   30.0932 C   0  0  0  0  0  0  0  0  0  0  0  0
   13.0332  -54.1205   29.8034 O   0  0  0  0  0  0  0  0  0  0  0  0
   12.1368  -51.7938   31.7945 O   0  0  0  0  0  0  0  0  0  0  0  0
   11.3107  -49.5467   29.6143 C   0  0  0  0  0  0  0  0  0  0  0  0
   11.2810  -50.1363   28.5175 O   0  0  0  0  0  0  0  0  0  0  0  0
   10.3419  -48.5870   29.8728 O   0  0  0  0  0  0  0  0  0  0  0  0
  1  2  1  0
  2  3  1  0
  3  4  1  0
  4  5  2  0
  3  6  1  0
  6  7  1  0
  7  8  2  3
  8  9  1  0
  9 10  1  0
  7 11  1  0
  6 12  1  0
 12 13  2  0
 12 14  1  0
  4  1  1  0
 11  2  1  0
M  END
$$$$
