
     RDKit          3D

 24 26  0  0  0  0  0  0  0  0999 V2000
   13.0298  -51.4546   33.9748 C   0  0  0  0  0  0  0  0  0  0  0  0
   11.8609  -51.6143   33.0546 C   0  0  0  0  0  0  0  0  0  0  0  0
   10.7602  -52.3184   33.4556 C   0  0  0  0  0  0  0  0  0  0  0  0
    9.6824  -52.4780   32.6351 N   0  0  0  0  0  0  0  0  0  0  0  0
    9.6935  -51.9267   31.3853 C   0  0  0  0  0  0  0  0  0  0  0  0
   10.7795  -51.2044   30.9267 C   0  0  0  0  0  0  0  0  0  0  0  0
   11.8738  -51.0537   31.7858 C   0  0  0  0  0  0  0  0  0  0  0  0
   12.9783  -50.3453   31.3796 O   0  0  0  0  0  0  0  0  0  0  0  0
   13.7898  -50.8842   30.3513 C   0  0  0  0  0  0  0  0  0  0  0  0
   10.7689  -50.6164   29.5709 C   0  0  0  0  0  0  0  0  0  0  0  0
    8.5056  -52.1174   30.5156 C   0  0  0  0  0  0  0  0  0  0  0  0
    7.5520  -53.5009   31.0641 S   0  0  0  0  0  0  0  0  0  0  0  0
    6.2565  -53.6371   30.3203 O   0  0  0  0  0  0  0  0  0  0  0  0
    8.4644  -55.0164   31.0247 C   0  0  0  0  0  0  0  0  0  0  0  0
    8.2544  -56.0164   31.9266 N   0  0  0  0  0  0  0  0  0  0  0  0
    9.0882  -57.0218   31.6413 C   0  0  0  0  0  0  0  0  0  0  0  0
    9.8452  -56.6669   30.5425 C   0  0  0  0  0  0  0  0  0  0  0  0
    9.4312  -55.4158   30.1862 N   0  0  0  0  0  0  0  0  0  0  0  0
   10.7948  -57.5192   30.0237 C   0  0  0  0  0  0  0  0  0  0  0  0
   11.0392  -58.7822   30.5809 C   0  0  0  0  0  0  0  0  0  0  0  0
   10.2847  -59.1160   31.6623 C   0  0  0  0  0  0  0  0  0  0  0  0
    9.3195  -58.2629   32.1989 C   0  0  0  0  0  0  0  0  0  0  0  0
   12.0024  -59.5350   29.9810 O   0  0  0  0  0  0  0  0  0  0  0  0
   12.4377  -60.7532   30.4858 C   0  0  0  0  0  0  0  0  0  0  0  0
  1  2  1  0
  2  3  1  0
  3  4  2  0
  4  5  1  0
  5  6  2  0
  6  7  1  0
  7  8  1  0
  8  9  1  0
  6 10  1  0
  5 11  1  0
 11 12  1  0
 12 13  2  0
 12 14  1  0
 14 15  2  0
 15 16  1  0
 16 17  2  0
 17 18  1  0
 17 19  1  0
 19 20  2  0
 20 21  1  0
 21 22  2  0
 20 23  1  0
 23 24  1  0
  7  2  2  0
 18 14  1  0
 22 16  1  0
M  END
$$$$
