
     RDKit          3D

 24 26  0  0  0  0  0  0  0  0999 V2000
   -1.9826  -43.9922    9.9306 C   0  0  0  0  0  0  0  0  0  0  0  0
   -2.2166  -44.2246    8.4712 C   0  0  0  0  0  0  0  0  0  0  0  0
   -1.2664  -43.8668    7.5561 C   0  0  0  0  0  0  0  0  0  0  0  0
   -1.4563  -44.0681    6.2205 N   0  0  0  0  0  0  0  0  0  0  0  0
   -2.6162  -44.6383    5.7785 C   0  0  0  0  0  0  0  0  0  0  0  0
   -3.6119  -45.0200    6.6585 C   0  0  0  0  0  0  0  0  0  0  0  0
   -3.3951  -44.8038    8.0240 C   0  0  0  0  0  0  0  0  0  0  0  0
   -4.3520  -45.1648    8.9409 O   0  0  0  0  0  0  0  0  0  0  0  0
   -5.3212  -44.2054    9.3236 C   0  0  0  0  0  0  0  0  0  0  0  0
   -4.8583  -45.6358    6.1573 C   0  0  0  0  0  0  0  0  0  0  0  0
   -2.7936  -44.8447    4.3190 C   0  0  0  0  0  0  0  0  0  0  0  0
   -1.7428  -43.7546    3.4071 S   0  0  0  0  0  0  0  0  0  0  0  0
   -1.7489  -44.0476    1.9360 O   0  0  0  0  0  0  0  0  0  0  0  0
   -2.1010  -42.0489    3.7121 C   0  0  0  0  0  0  0  0  0  0  0  0
   -3.0503  -41.6527    4.6062 N   0  0  0  0  0  0  0  0  0  0  0  0
   -3.0891  -40.3163    4.6137 C   0  0  0  0  0  0  0  0  0  0  0  0
   -2.1540  -39.8443    3.7143 C   0  0  0  0  0  0  0  0  0  0  0  0
   -1.5592  -40.9474    3.1730 N   0  0  0  0  0  0  0  0  0  0  0  0
   -1.9741  -38.4935    3.5137 C   0  0  0  0  0  0  0  0  0  0  0  0
   -2.7261  -37.5355    4.2080 C   0  0  0  0  0  0  0  0  0  0  0  0
   -3.6423  -38.0175    5.0902 C   0  0  0  0  0  0  0  0  0  0  0  0
   -3.8357  -39.3830    5.3037 C   0  0  0  0  0  0  0  0  0  0  0  0
   -2.4584  -36.2307    3.9247 O   0  0  0  0  0  0  0  0  0  0  0  0
   -1.3336  -35.8225    3.2200 C   0  0  0  0  0  0  0  0  0  0  0  0
  1  2  1  0
  2  3  1  0
  3  4  2  0
  4  5  1  0
  5  6  2  0
  6  7  1  0
  7  8  1  0
  8  9  1  0
  6 10  1  0
  5 11  1  0
 11 12  1  0
 12 13  2  0
 12 14  1  0
 14 15  2  0
 15 16  1  0
 16 17  2  0
 17 18  1  0
 17 19  1  0
 19 20  2  0
 20 21  1  0
 21 22  2  0
 20 23  1  0
 23 24  1  0
  7  2  2  0
 18 14  1  0
 22 16  1  0
M  END
$$$$
