
     RDKit          3D

 25 24  0  0  0  0  0  0  0  0999 V2000
   10.8875   -7.8559  -11.3389 C   0  0  0  0  0  0  0  0  0  0  0  0
   12.1210   -7.7235  -11.1404 O   0  0  0  0  0  0  0  0  0  0  0  0
    9.9987   -7.9478  -10.1508 C   0  0  0  0  0  0  0  0  0  0  0  0
    9.3536   -6.5747   -9.9171 C   0  0  0  0  0  0  0  0  0  0  0  0
    8.4589   -6.6683   -8.7379 C   0  0  0  0  0  0  0  0  0  0  0  0
    7.8624   -5.4272   -8.1925 C   0  0  0  0  0  0  0  0  0  0  0  0
    7.1161   -5.5188   -6.8974 C   0  0  0  0  0  0  0  0  0  0  0  0
    6.6016   -4.0989   -6.6153 C   0  0  0  0  0  0  0  0  0  0  0  0
    5.8671   -4.0527   -5.2992 C   0  0  0  0  0  0  0  0  0  0  0  0
    6.8643   -4.0840   -4.3145 F   0  0  0  0  0  0  0  0  0  0  0  0
    5.1492   -5.2240   -5.1153 F   0  0  0  0  0  0  0  0  0  0  0  0
    5.0488   -2.9646   -5.1736 F   0  0  0  0  0  0  0  0  0  0  0  0
    5.7724   -3.7087   -7.6378 F   0  0  0  0  0  0  0  0  0  0  0  0
    7.7108   -3.2814   -6.5155 F   0  0  0  0  0  0  0  0  0  0  0  0
    5.9958   -6.3619   -6.9829 F   0  0  0  0  0  0  0  0  0  0  0  0
    7.8867   -5.9527   -5.8480 F   0  0  0  0  0  0  0  0  0  0  0  0
    6.9833   -4.8261   -9.1038 F   0  0  0  0  0  0  0  0  0  0  0  0
    8.9022   -4.5175   -7.9668 F   0  0  0  0  0  0  0  0  0  0  0  0
    7.3808   -7.5474   -8.9855 F   0  0  0  0  0  0  0  0  0  0  0  0
    9.2183   -7.2924   -7.7244 F   0  0  0  0  0  0  0  0  0  0  0  0
    8.7332   -6.1922  -11.0963 F   0  0  0  0  0  0  0  0  0  0  0  0
   10.3651   -5.6769   -9.6677 F   0  0  0  0  0  0  0  0  0  0  0  0
   10.6867   -8.3304   -9.0168 F   0  0  0  0  0  0  0  0  0  0  0  0
    9.0521   -8.9092  -10.4118 F   0  0  0  0  0  0  0  0  0  0  0  0
   10.3197   -7.9200  -12.6048 O   0  0  0  0  0  0  0  0  0  0  0  0
  1  2  2  0
  1  3  1  0
  3  4  1  0
  4  5  1  0
  5  6  1  0
  6  7  1  0
  7  8  1  0
  8  9  1  0
  9 10  1  0
  9 11  1  0
  9 12  1  0
  8 13  1  0
  8 14  1  0
  7 15  1  0
  7 16  1  0
  6 17  1  0
  6 18  1  0
  5 19  1  0
  5 20  1  0
  4 21  1  0
  4 22  1  0
  3 23  1  0
  3 24  1  0
  1 25  1  0
M  END
$$$$
