
     RDKit          3D

 25 24  0  0  0  0  0  0  0  0999 V2000
    8.8647  -10.6907  -15.8189 C   0  0  0  0  0  0  0  0  0  0  0  0
    9.6305  -10.6157  -16.8119 O   0  0  0  0  0  0  0  0  0  0  0  0
    9.2417   -9.9393  -14.5927 C   0  0  0  0  0  0  0  0  0  0  0  0
    8.2987   -8.7368  -14.4484 C   0  0  0  0  0  0  0  0  0  0  0  0
    8.6034   -8.0489  -13.1703 C   0  0  0  0  0  0  0  0  0  0  0  0
    7.8381   -6.8324  -12.8127 C   0  0  0  0  0  0  0  0  0  0  0  0
    7.9704   -6.3064  -11.4168 C   0  0  0  0  0  0  0  0  0  0  0  0
    6.8305   -5.2902  -11.2481 C   0  0  0  0  0  0  0  0  0  0  0  0
    6.7142   -4.8579   -9.8082 C   0  0  0  0  0  0  0  0  0  0  0  0
    6.3555   -6.0132   -9.0999 F   0  0  0  0  0  0  0  0  0  0  0  0
    5.6370   -3.9991   -9.6563 F   0  0  0  0  0  0  0  0  0  0  0  0
    7.8560   -4.2850   -9.3208 F   0  0  0  0  0  0  0  0  0  0  0  0
    5.6543   -5.8580  -11.6717 F   0  0  0  0  0  0  0  0  0  0  0  0
    7.1646   -4.1819  -12.0022 F   0  0  0  0  0  0  0  0  0  0  0  0
    7.7877   -7.3067  -10.4477 F   0  0  0  0  0  0  0  0  0  0  0  0
    9.1763   -5.6999  -11.1695 F   0  0  0  0  0  0  0  0  0  0  0  0
    6.4640   -6.9954  -13.0360 F   0  0  0  0  0  0  0  0  0  0  0  0
    8.2683   -5.7962  -13.6500 F   0  0  0  0  0  0  0  0  0  0  0  0
    8.4750   -8.9312  -12.0742 F   0  0  0  0  0  0  0  0  0  0  0  0
    9.9764   -7.7243  -13.2232 F   0  0  0  0  0  0  0  0  0  0  0  0
    6.9983   -9.2016  -14.5699 F   0  0  0  0  0  0  0  0  0  0  0  0
    8.5394   -7.8902  -15.5052 F   0  0  0  0  0  0  0  0  0  0  0  0
   10.5480   -9.4951  -14.6378 F   0  0  0  0  0  0  0  0  0  0  0  0
    9.1269  -10.7980  -13.5260 F   0  0  0  0  0  0  0  0  0  0  0  0
    7.6926  -11.4358  -15.8122 O   0  0  0  0  0  0  0  0  0  0  0  0
  1  2  2  0
  1  3  1  0
  3  4  1  0
  4  5  1  0
  5  6  1  0
  6  7  1  0
  7  8  1  0
  8  9  1  0
  9 10  1  0
  9 11  1  0
  9 12  1  0
  8 13  1  0
  8 14  1  0
  7 15  1  0
  7 16  1  0
  6 17  1  0
  6 18  1  0
  5 19  1  0
  5 20  1  0
  4 21  1  0
  4 22  1  0
  3 23  1  0
  3 24  1  0
  1 25  1  0
M  END
$$$$
