
     RDKit          3D

 25 24  0  0  0  0  0  0  0  0999 V2000
    4.1600   -5.4250   -8.3831 C   0  0  0  0  0  0  0  0  0  0  0  0
    3.7775   -4.2418   -8.2038 O   0  0  0  0  0  0  0  0  0  0  0  0
    4.2034   -5.9371   -9.7781 C   0  0  0  0  0  0  0  0  0  0  0  0
    5.6170   -5.7172  -10.3345 C   0  0  0  0  0  0  0  0  0  0  0  0
    5.8042   -6.6016  -11.5101 C   0  0  0  0  0  0  0  0  0  0  0  0
    7.1148   -6.6066  -12.2000 C   0  0  0  0  0  0  0  0  0  0  0  0
    7.3682   -7.6778  -13.2153 C   0  0  0  0  0  0  0  0  0  0  0  0
    8.7857   -7.4164  -13.7471 C   0  0  0  0  0  0  0  0  0  0  0  0
    9.1916   -8.4900  -14.7250 C   0  0  0  0  0  0  0  0  0  0  0  0
   10.4816   -8.1407  -15.1478 F   0  0  0  0  0  0  0  0  0  0  0  0
    8.4099   -8.4116  -15.8669 F   0  0  0  0  0  0  0  0  0  0  0  0
    9.1429   -9.7502  -14.1969 F   0  0  0  0  0  0  0  0  0  0  0  0
    9.6628   -7.3770  -12.6915 F   0  0  0  0  0  0  0  0  0  0  0  0
    8.7458   -6.2131  -14.4246 F   0  0  0  0  0  0  0  0  0  0  0  0
    7.3625   -8.9639  -12.6502 F   0  0  0  0  0  0  0  0  0  0  0  0
    6.4720   -7.6738  -14.2546 F   0  0  0  0  0  0  0  0  0  0  0  0
    8.1818   -6.6725  -11.2935 F   0  0  0  0  0  0  0  0  0  0  0  0
    7.2384   -5.3945  -12.8896 F   0  0  0  0  0  0  0  0  0  0  0  0
    5.5261   -7.9480  -11.1837 F   0  0  0  0  0  0  0  0  0  0  0  0
    4.8036   -6.2326  -12.4354 F   0  0  0  0  0  0  0  0  0  0  0  0
    6.5158   -5.9190   -9.2985 F   0  0  0  0  0  0  0  0  0  0  0  0
    5.7125   -4.4002  -10.7189 F   0  0  0  0  0  0  0  0  0  0  0  0
    3.2863   -5.3030  -10.5921 F   0  0  0  0  0  0  0  0  0  0  0  0
    3.8802   -7.2723   -9.7421 F   0  0  0  0  0  0  0  0  0  0  0  0
    4.5409   -6.2700   -7.3488 O   0  0  0  0  0  0  0  0  0  0  0  0
  1  2  2  0
  1  3  1  0
  3  4  1  0
  4  5  1  0
  5  6  1  0
  6  7  1  0
  7  8  1  0
  8  9  1  0
  9 10  1  0
  9 11  1  0
  9 12  1  0
  8 13  1  0
  8 14  1  0
  7 15  1  0
  7 16  1  0
  6 17  1  0
  6 18  1  0
  5 19  1  0
  5 20  1  0
  4 21  1  0
  4 22  1  0
  3 23  1  0
  3 24  1  0
  1 25  1  0
M  END
$$$$
