
     RDKit          3D

 25 24  0  0  0  0  0  0  0  0999 V2000
    0.3125  -19.3216   -9.1432 C   0  0  0  0  0  0  0  0  0  0  0  0
    0.6524  -18.7115   -8.0799 O   0  0  0  0  0  0  0  0  0  0  0  0
   -0.2748  -18.5893  -10.2834 C   0  0  0  0  0  0  0  0  0  0  0  0
   -0.2097  -17.0709  -10.0577 C   0  0  0  0  0  0  0  0  0  0  0  0
    1.2238  -16.7159  -10.3466 C   0  0  0  0  0  0  0  0  0  0  0  0
    1.6764  -15.3721   -9.9481 C   0  0  0  0  0  0  0  0  0  0  0  0
    3.0313  -14.9294  -10.3480 C   0  0  0  0  0  0  0  0  0  0  0  0
    3.1875  -13.4896   -9.8119 C   0  0  0  0  0  0  0  0  0  0  0  0
    4.5318  -12.9361  -10.2114 C   0  0  0  0  0  0  0  0  0  0  0  0
    4.7153  -11.6442   -9.7831 F   0  0  0  0  0  0  0  0  0  0  0  0
    4.6385  -12.9900  -11.5871 F   0  0  0  0  0  0  0  0  0  0  0  0
    5.4852  -13.7693   -9.6777 F   0  0  0  0  0  0  0  0  0  0  0  0
    2.1529  -12.7428  -10.3174 F   0  0  0  0  0  0  0  0  0  0  0  0
    3.1104  -13.4848   -8.4423 F   0  0  0  0  0  0  0  0  0  0  0  0
    3.2156  -14.9147  -11.7068 F   0  0  0  0  0  0  0  0  0  0  0  0
    4.0767  -15.6637   -9.8005 F   0  0  0  0  0  0  0  0  0  0  0  0
    1.5025  -15.2488   -8.5738 F   0  0  0  0  0  0  0  0  0  0  0  0
    0.7549  -14.4608  -10.4900 F   0  0  0  0  0  0  0  0  0  0  0  0
    2.0584  -17.7302   -9.8835 F   0  0  0  0  0  0  0  0  0  0  0  0
    1.3289  -16.7894  -11.7476 F   0  0  0  0  0  0  0  0  0  0  0  0
   -0.5826  -16.8893   -8.7405 F   0  0  0  0  0  0  0  0  0  0  0  0
   -1.0765  -16.3994  -10.8597 F   0  0  0  0  0  0  0  0  0  0  0  0
   -1.6221  -18.8770  -10.3951 F   0  0  0  0  0  0  0  0  0  0  0  0
    0.4039  -18.8487  -11.4397 F   0  0  0  0  0  0  0  0  0  0  0  0
    0.4980  -20.6949   -9.2289 O   0  0  0  0  0  0  0  0  0  0  0  0
  1  2  2  0
  1  3  1  0
  3  4  1  0
  4  5  1  0
  5  6  1  0
  6  7  1  0
  7  8  1  0
  8  9  1  0
  9 10  1  0
  9 11  1  0
  9 12  1  0
  8 13  1  0
  8 14  1  0
  7 15  1  0
  7 16  1  0
  6 17  1  0
  6 18  1  0
  5 19  1  0
  5 20  1  0
  4 21  1  0
  4 22  1  0
  3 23  1  0
  3 24  1  0
  1 25  1  0
M  END
$$$$
