
     RDKit          3D

 25 24  0  0  0  0  0  0  0  0999 V2000
    9.0442   -2.1084  -11.4569 C   0  0  0  0  0  0  0  0  0  0  0  0
   10.0971   -1.5157  -11.8548 O   0  0  0  0  0  0  0  0  0  0  0  0
    9.0336   -2.8678  -10.1903 C   0  0  0  0  0  0  0  0  0  0  0  0
   10.4398   -3.3790   -9.8406 C   0  0  0  0  0  0  0  0  0  0  0  0
   10.2390   -4.1798   -8.5825 C   0  0  0  0  0  0  0  0  0  0  0  0
   11.3590   -5.0282   -8.1405 C   0  0  0  0  0  0  0  0  0  0  0  0
   11.2453   -5.7411   -6.8479 C   0  0  0  0  0  0  0  0  0  0  0  0
   12.4384   -6.7198   -6.7918 C   0  0  0  0  0  0  0  0  0  0  0  0
   12.3525   -7.5630   -5.5449 C   0  0  0  0  0  0  0  0  0  0  0  0
   11.1927   -8.2962   -5.4865 F   0  0  0  0  0  0  0  0  0  0  0  0
   12.4335   -6.7317   -4.4453 F   0  0  0  0  0  0  0  0  0  0  0  0
   13.4530   -8.3856   -5.5383 F   0  0  0  0  0  0  0  0  0  0  0  0
   12.4047   -7.4828   -7.9321 F   0  0  0  0  0  0  0  0  0  0  0  0
   13.6196   -6.0230   -6.7590 F   0  0  0  0  0  0  0  0  0  0  0  0
   10.0826   -6.4582   -6.7271 F   0  0  0  0  0  0  0  0  0  0  0  0
   11.3495   -4.9359   -5.7198 F   0  0  0  0  0  0  0  0  0  0  0  0
   12.5207   -4.2647   -8.1824 F   0  0  0  0  0  0  0  0  0  0  0  0
   11.5511   -5.9939   -9.1423 F   0  0  0  0  0  0  0  0  0  0  0  0
    9.7540   -3.3507   -7.5739 F   0  0  0  0  0  0  0  0  0  0  0  0
    9.1629   -5.0362   -8.8785 F   0  0  0  0  0  0  0  0  0  0  0  0
   11.2017   -2.2399   -9.6701 F   0  0  0  0  0  0  0  0  0  0  0  0
   10.9747   -4.1234  -10.8431 F   0  0  0  0  0  0  0  0  0  0  0  0
    8.2610   -4.0064  -10.3205 F   0  0  0  0  0  0  0  0  0  0  0  0
    8.6247   -2.0854   -9.1483 F   0  0  0  0  0  0  0  0  0  0  0  0
    7.8910   -2.0378  -12.2270 O   0  0  0  0  0  0  0  0  0  0  0  0
  1  2  2  0
  1  3  1  0
  3  4  1  0
  4  5  1  0
  5  6  1  0
  6  7  1  0
  7  8  1  0
  8  9  1  0
  9 10  1  0
  9 11  1  0
  9 12  1  0
  8 13  1  0
  8 14  1  0
  7 15  1  0
  7 16  1  0
  6 17  1  0
  6 18  1  0
  5 19  1  0
  5 20  1  0
  4 21  1  0
  4 22  1  0
  3 23  1  0
  3 24  1  0
  1 25  1  0
M  END
$$$$
