
     RDKit          3D

  4  3  0  0  0  0  0  0  0  0999 V2000
    7.6542   -8.4737   -7.7497 C   0  0  0  0  0  0  0  0  0  0  0  0
    6.3199   -8.0144   -8.3039 C   0  0  0  0  0  0  0  0  0  0  0  0
    5.4945   -9.2955   -9.2270 Cl  0  0  0  0  0  0  0  0  0  0  0  0
    8.1904   -7.3031   -6.5096 Cl  0  0  0  0  0  0  0  0  0  0  0  0
  1  2  1  0
  2  3  1  0
  1  4  1  0
M  END
$$$$
