
     RDKit          3D

  4  3  0  0  0  0  0  0  0  0999 V2000
   15.6500    3.4205    2.0990 C   0  0  0  0  0  0  0  0  0  0  0  0
   14.5528    4.3539    1.6264 C   0  0  0  0  0  0  0  0  0  0  0  0
   14.1302    5.5755    2.8527 Cl  0  0  0  0  0  0  0  0  0  0  0  0
   15.8061    2.0824    0.9238 Cl  0  0  0  0  0  0  0  0  0  0  0  0
  1  2  1  0
  2  3  1  0
  1  4  1  0
M  END
$$$$
