
     RDKit          3D

  4  3  0  0  0  0  0  0  0  0999 V2000
   -3.3647   -8.2571  -20.2408 C   0  0  0  0  0  0  0  0  0  0  0  0
   -2.8049   -9.5524  -20.7950 C   0  0  0  0  0  0  0  0  0  0  0  0
   -3.7766  -10.9675  -20.3177 Cl  0  0  0  0  0  0  0  0  0  0  0  0
   -3.0001   -6.9392  -21.3923 Cl  0  0  0  0  0  0  0  0  0  0  0  0
  1  2  1  0
  2  3  1  0
  1  4  1  0
M  END
$$$$
