
     RDKit          3D

  4  3  0  0  0  0  0  0  0  0999 V2000
   -3.9979   15.3594    3.4198 C   0  0  0  0  0  0  0  0  0  0  0  0
   -5.3085   14.8866    2.8222 C   0  0  0  0  0  0  0  0  0  0  0  0
   -6.7210   15.5959    3.6446 Cl  0  0  0  0  0  0  0  0  0  0  0  0
   -2.6570   14.7591    2.4013 Cl  0  0  0  0  0  0  0  0  0  0  0  0
  1  2  1  0
  2  3  1  0
  1  4  1  0
M  END
$$$$
