
     RDKit          3D

  4  3  0  0  0  0  0  0  0  0999 V2000
    5.9195   -7.7309  -15.2914 C   0  0  0  0  0  0  0  0  0  0  0  0
    4.6939   -8.5713  -14.9917 C   0  0  0  0  0  0  0  0  0  0  0  0
    5.0315  -10.3179  -15.0903 Cl  0  0  0  0  0  0  0  0  0  0  0  0
    5.4047   -6.0354  -15.5286 Cl  0  0  0  0  0  0  0  0  0  0  0  0
  1  2  1  0
  2  3  1  0
  1  4  1  0
M  END
$$$$
