
     RDKit          3D

  4  3  0  0  0  0  0  0  0  0999 V2000
    5.4298  -10.3914   -9.1437 C   0  0  0  0  0  0  0  0  0  0  0  0
    4.8847  -10.8986   -7.8231 C   0  0  0  0  0  0  0  0  0  0  0  0
    4.2943  -12.5759   -7.9352 Cl  0  0  0  0  0  0  0  0  0  0  0  0
    5.6023   -8.6148   -9.0451 Cl  0  0  0  0  0  0  0  0  0  0  0  0
  1  2  1  0
  2  3  1  0
  1  4  1  0
M  END
$$$$
