
     RDKit          3D

 25 24  0  0  0  0  0  0  0  0999 V2000
   -3.8561  -11.8021   -7.1085 C   0  0  0  0  0  0  0  0  0  0  0  0
   -3.4790  -12.7601   -7.8165 O   0  0  0  0  0  0  0  0  0  0  0  0
   -2.9573  -10.9507   -6.2876 C   0  0  0  0  0  0  0  0  0  0  0  0
   -1.7941  -11.5881   -5.6835 C   0  0  0  0  0  0  0  0  0  0  0  0
   -0.6661  -10.9224   -5.0545 C   0  0  0  0  0  0  0  0  0  0  0  0
    0.3059  -11.5244   -4.1648 C   0  0  0  0  0  0  0  0  0  0  0  0
    1.0411  -10.9023   -3.0742 C   0  0  0  0  0  0  0  0  0  0  0  0
    2.1182  -11.6741   -2.3921 C   0  0  0  0  0  0  0  0  0  0  0  0
    3.0926  -10.7121   -1.6856 C   0  0  0  0  0  0  0  0  0  0  0  0
    2.4179  -10.0826   -0.6365 F   0  0  0  0  0  0  0  0  0  0  0  0
    3.6251   -9.8229   -2.5825 F   0  0  0  0  0  0  0  0  0  0  0  0
    4.1029  -11.4270   -1.0731 F   0  0  0  0  0  0  0  0  0  0  0  0
    1.7476  -12.5789   -1.4615 F   0  0  0  0  0  0  0  0  0  0  0  0
    2.9033  -12.2440   -3.3994 F   0  0  0  0  0  0  0  0  0  0  0  0
    1.8100   -9.8618   -3.7517 F   0  0  0  0  0  0  0  0  0  0  0  0
    0.3019  -10.0837   -2.2107 F   0  0  0  0  0  0  0  0  0  0  0  0
   -0.3175  -12.6852   -3.5768 F   0  0  0  0  0  0  0  0  0  0  0  0
    1.3222  -12.1832   -4.9515 F   0  0  0  0  0  0  0  0  0  0  0  0
   -0.0447  -10.1606   -6.0760 F   0  0  0  0  0  0  0  0  0  0  0  0
   -1.2542   -9.8511   -4.2833 F   0  0  0  0  0  0  0  0  0  0  0  0
   -1.2872  -12.4563   -6.7185 F   0  0  0  0  0  0  0  0  0  0  0  0
   -2.3132  -12.6047   -4.8001 F   0  0  0  0  0  0  0  0  0  0  0  0
   -3.7106  -10.1295   -5.5030 F   0  0  0  0  0  0  0  0  0  0  0  0
   -2.3820  -10.0231   -7.2436 F   0  0  0  0  0  0  0  0  0  0  0  0
   -5.2062  -11.5074   -7.0826 O   0  0  0  0  0  0  0  0  0  0  0  0
  1  2  2  0
  1  3  1  0
  3  4  1  0
  4  5  1  0
  5  6  1  0
  6  7  1  0
  7  8  1  0
  8  9  1  0
  9 10  1  0
  9 11  1  0
  9 12  1  0
  8 13  1  0
  8 14  1  0
  7 15  1  0
  7 16  1  0
  6 17  1  0
  6 18  1  0
  5 19  1  0
  5 20  1  0
  4 21  1  0
  4 22  1  0
  3 23  1  0
  3 24  1  0
  1 25  1  0
M  END
$$$$
