
     RDKit          3D

 25 24  0  0  0  0  0  0  0  0999 V2000
    3.5907  -11.0619   -2.8889 C   0  0  0  0  0  0  0  0  0  0  0  0
    3.8510   -9.9412   -3.3761 O   0  0  0  0  0  0  0  0  0  0  0  0
    2.3271  -11.8100   -3.1132 C   0  0  0  0  0  0  0  0  0  0  0  0
    1.3018  -11.1690   -3.9269 C   0  0  0  0  0  0  0  0  0  0  0  0
    0.0532  -11.7603   -4.3773 C   0  0  0  0  0  0  0  0  0  0  0  0
   -0.9402  -11.1374   -5.2282 C   0  0  0  0  0  0  0  0  0  0  0  0
   -2.3004  -11.5758   -5.5011 C   0  0  0  0  0  0  0  0  0  0  0  0
   -3.0610  -10.9336   -6.6102 C   0  0  0  0  0  0  0  0  0  0  0  0
   -4.4128  -11.6460   -6.8071 C   0  0  0  0  0  0  0  0  0  0  0  0
   -5.2061  -11.4202   -5.6792 F   0  0  0  0  0  0  0  0  0  0  0  0
   -4.2212  -12.9791   -7.0618 F   0  0  0  0  0  0  0  0  0  0  0  0
   -5.1089  -11.0621   -7.8470 F   0  0  0  0  0  0  0  0  0  0  0  0
   -3.3457   -9.6191   -6.4959 F   0  0  0  0  0  0  0  0  0  0  0  0
   -2.3702  -11.2235   -7.7911 F   0  0  0  0  0  0  0  0  0  0  0  0
   -2.1089  -12.9271   -6.0207 F   0  0  0  0  0  0  0  0  0  0  0  0
   -3.0889  -11.8926   -4.3875 F   0  0  0  0  0  0  0  0  0  0  0  0
   -1.0721   -9.7674   -4.7952 F   0  0  0  0  0  0  0  0  0  0  0  0
   -0.3682  -10.9112   -6.5349 F   0  0  0  0  0  0  0  0  0  0  0  0
    0.3784  -13.0683   -4.8172 F   0  0  0  0  0  0  0  0  0  0  0  0
   -0.6582  -12.0877   -3.1629 F   0  0  0  0  0  0  0  0  0  0  0  0
    2.0165  -10.6859   -5.0834 F   0  0  0  0  0  0  0  0  0  0  0  0
    1.0389   -9.8947   -3.3020 F   0  0  0  0  0  0  0  0  0  0  0  0
    1.9379  -12.3936   -1.9447 F   0  0  0  0  0  0  0  0  0  0  0  0
    2.7321  -12.9530   -3.9100 F   0  0  0  0  0  0  0  0  0  0  0  0
    4.5432  -11.6546   -2.0815 O   0  0  0  0  0  0  0  0  0  0  0  0
  1  2  2  0
  1  3  1  0
  3  4  1  0
  4  5  1  0
  5  6  1  0
  6  7  1  0
  7  8  1  0
  8  9  1  0
  9 10  1  0
  9 11  1  0
  9 12  1  0
  8 13  1  0
  8 14  1  0
  7 15  1  0
  7 16  1  0
  6 17  1  0
  6 18  1  0
  5 19  1  0
  5 20  1  0
  4 21  1  0
  4 22  1  0
  3 23  1  0
  3 24  1  0
  1 25  1  0
M  END
$$$$
