
     RDKit          3D

 25 24  0  0  0  0  0  0  0  0999 V2000
   -3.3788  -10.6229  -12.6389 C   0  0  0  0  0  0  0  0  0  0  0  0
   -3.2233  -11.8617  -12.6855 O   0  0  0  0  0  0  0  0  0  0  0  0
   -4.4136   -9.9292  -11.8299 C   0  0  0  0  0  0  0  0  0  0  0  0
   -5.3435  -10.7585  -11.0738 C   0  0  0  0  0  0  0  0  0  0  0  0
   -6.3623  -10.2985  -10.1455 C   0  0  0  0  0  0  0  0  0  0  0  0
   -7.2384  -11.1281   -9.3438 C   0  0  0  0  0  0  0  0  0  0  0  0
   -8.5025  -10.7690   -8.7191 C   0  0  0  0  0  0  0  0  0  0  0  0
   -9.1458  -11.7296   -7.7786 C   0  0  0  0  0  0  0  0  0  0  0  0
  -10.5760  -11.2648   -7.4433 C   0  0  0  0  0  0  0  0  0  0  0  0
  -11.1436  -12.1744   -6.5474 F   0  0  0  0  0  0  0  0  0  0  0  0
  -11.3147  -11.1179   -8.5885 F   0  0  0  0  0  0  0  0  0  0  0  0
  -10.5358  -10.0706   -6.7511 F   0  0  0  0  0  0  0  0  0  0  0  0
   -9.2549  -13.0156   -8.1737 F   0  0  0  0  0  0  0  0  0  0  0  0
   -8.4740  -11.6073   -6.5581 F   0  0  0  0  0  0  0  0  0  0  0  0
   -8.1235   -9.6847   -7.8172 F   0  0  0  0  0  0  0  0  0  0  0  0
   -9.4145  -10.0654   -9.5162 F   0  0  0  0  0  0  0  0  0  0  0  0
   -7.5301  -12.3104  -10.1175 F   0  0  0  0  0  0  0  0  0  0  0  0
   -6.4726  -11.7334   -8.2793 F   0  0  0  0  0  0  0  0  0  0  0  0
   -5.7533   -9.2763   -9.3746 F   0  0  0  0  0  0  0  0  0  0  0  0
   -7.2540   -9.4923  -10.9474 F   0  0  0  0  0  0  0  0  0  0  0  0
   -4.4979  -11.7035  -10.3855 F   0  0  0  0  0  0  0  0  0  0  0  0
   -5.9307  -11.6676  -12.0290 F   0  0  0  0  0  0  0  0  0  0  0  0
   -4.9282   -8.8943  -12.5521 F   0  0  0  0  0  0  0  0  0  0  0  0
   -3.6540   -9.2418  -10.8024 F   0  0  0  0  0  0  0  0  0  0  0  0
   -2.5297   -9.8344  -13.3924 O   0  0  0  0  0  0  0  0  0  0  0  0
  1  2  2  0
  1  3  1  0
  3  4  1  0
  4  5  1  0
  5  6  1  0
  6  7  1  0
  7  8  1  0
  8  9  1  0
  9 10  1  0
  9 11  1  0
  9 12  1  0
  8 13  1  0
  8 14  1  0
  7 15  1  0
  7 16  1  0
  6 17  1  0
  6 18  1  0
  5 19  1  0
  5 20  1  0
  4 21  1  0
  4 22  1  0
  3 23  1  0
  3 24  1  0
  1 25  1  0
M  END
$$$$
