
     RDKit          3D

 25 24  0  0  0  0  0  0  0  0999 V2000
   -3.1726  -10.5969   -8.9774 C   0  0  0  0  0  0  0  0  0  0  0  0
   -2.8838   -9.4034   -9.2080 O   0  0  0  0  0  0  0  0  0  0  0  0
   -3.8541  -11.0812   -7.7496 C   0  0  0  0  0  0  0  0  0  0  0  0
   -3.0194  -11.3959   -6.5970 C   0  0  0  0  0  0  0  0  0  0  0  0
   -3.3890  -12.2101   -5.4517 C   0  0  0  0  0  0  0  0  0  0  0  0
   -2.5222  -12.6151   -4.3639 C   0  0  0  0  0  0  0  0  0  0  0  0
   -2.8588  -13.3908   -3.1798 C   0  0  0  0  0  0  0  0  0  0  0  0
   -1.7976  -13.6753   -2.1729 C   0  0  0  0  0  0  0  0  0  0  0  0
   -1.6255  -15.1966   -2.0006 C   0  0  0  0  0  0  0  0  0  0  0  0
   -1.2699  -15.7492   -3.2337 F   0  0  0  0  0  0  0  0  0  0  0  0
   -2.7642  -15.7533   -1.4791 F   0  0  0  0  0  0  0  0  0  0  0  0
   -0.5502  -15.4611   -1.1755 F   0  0  0  0  0  0  0  0  0  0  0  0
   -0.5623  -13.1849   -2.4087 F   0  0  0  0  0  0  0  0  0  0  0  0
   -2.3002  -13.2666   -0.9335 F   0  0  0  0  0  0  0  0  0  0  0  0
   -3.7336  -12.4877   -2.4368 F   0  0  0  0  0  0  0  0  0  0  0  0
   -3.7598  -14.4477   -3.3620 F   0  0  0  0  0  0  0  0  0  0  0  0
   -1.3972  -13.3026   -4.9499 F   0  0  0  0  0  0  0  0  0  0  0  0
   -1.8375  -11.4529   -3.8475 F   0  0  0  0  0  0  0  0  0  0  0  0
   -4.6167  -11.6818   -4.9786 F   0  0  0  0  0  0  0  0  0  0  0  0
   -3.8669  -13.4497   -6.0201 F   0  0  0  0  0  0  0  0  0  0  0  0
   -2.5804  -10.1090   -6.1143 F   0  0  0  0  0  0  0  0  0  0  0  0
   -1.7598  -11.8537   -7.1329 F   0  0  0  0  0  0  0  0  0  0  0  0
   -4.8211  -11.9766   -8.0969 F   0  0  0  0  0  0  0  0  0  0  0  0
   -4.6335   -9.9401   -7.3070 F   0  0  0  0  0  0  0  0  0  0  0  0
   -2.8364  -11.5406   -9.9297 O   0  0  0  0  0  0  0  0  0  0  0  0
  1  2  2  0
  1  3  1  0
  3  4  1  0
  4  5  1  0
  5  6  1  0
  6  7  1  0
  7  8  1  0
  8  9  1  0
  9 10  1  0
  9 11  1  0
  9 12  1  0
  8 13  1  0
  8 14  1  0
  7 15  1  0
  7 16  1  0
  6 17  1  0
  6 18  1  0
  5 19  1  0
  5 20  1  0
  4 21  1  0
  4 22  1  0
  3 23  1  0
  3 24  1  0
  1 25  1  0
M  END
$$$$
