
     RDKit          3D

 25 24  0  0  0  0  0  0  0  0999 V2000
   -5.6728    2.5553   -4.7882 C   0  0  0  0  0  0  0  0  0  0  0  0
   -4.6887    2.6718   -5.5699 O   0  0  0  0  0  0  0  0  0  0  0  0
   -5.8709    3.4600   -3.6120 C   0  0  0  0  0  0  0  0  0  0  0  0
   -4.5364    3.7270   -3.0432 C   0  0  0  0  0  0  0  0  0  0  0  0
   -4.4134    4.6400   -1.8955 C   0  0  0  0  0  0  0  0  0  0  0  0
   -3.2805    4.4488   -0.9622 C   0  0  0  0  0  0  0  0  0  0  0  0
   -3.2800    5.6808   -0.0419 C   0  0  0  0  0  0  0  0  0  0  0  0
   -2.2852    5.4850    1.0876 C   0  0  0  0  0  0  0  0  0  0  0  0
   -2.4922    6.6041    2.0826 C   0  0  0  0  0  0  0  0  0  0  0  0
   -1.8174    6.2313    3.2390 F   0  0  0  0  0  0  0  0  0  0  0  0
   -1.9959    7.7875    1.6041 F   0  0  0  0  0  0  0  0  0  0  0  0
   -3.8578    6.6810    2.3058 F   0  0  0  0  0  0  0  0  0  0  0  0
   -2.5261    4.2451    1.6317 F   0  0  0  0  0  0  0  0  0  0  0  0
   -0.9907    5.5172    0.6105 F   0  0  0  0  0  0  0  0  0  0  0  0
   -4.5326    5.8409    0.5393 F   0  0  0  0  0  0  0  0  0  0  0  0
   -3.0370    6.8351   -0.7616 F   0  0  0  0  0  0  0  0  0  0  0  0
   -2.0278    4.5027   -1.5728 F   0  0  0  0  0  0  0  0  0  0  0  0
   -3.3878    3.3689   -0.1258 F   0  0  0  0  0  0  0  0  0  0  0  0
   -4.3628    5.9588   -2.3396 F   0  0  0  0  0  0  0  0  0  0  0  0
   -5.5759    4.5450   -1.1519 F   0  0  0  0  0  0  0  0  0  0  0  0
   -3.9467    2.5242   -2.7004 F   0  0  0  0  0  0  0  0  0  0  0  0
   -3.7421    4.2183   -4.0890 F   0  0  0  0  0  0  0  0  0  0  0  0
   -6.7609    2.8547   -2.7856 F   0  0  0  0  0  0  0  0  0  0  0  0
   -6.4403    4.6096   -4.1779 F   0  0  0  0  0  0  0  0  0  0  0  0
   -6.5688    1.5299   -5.0854 O   0  0  0  0  0  0  0  0  0  0  0  0
  1  2  2  0
  1  3  1  0
  3  4  1  0
  4  5  1  0
  5  6  1  0
  6  7  1  0
  7  8  1  0
  8  9  1  0
  9 10  1  0
  9 11  1  0
  9 12  1  0
  8 13  1  0
  8 14  1  0
  7 15  1  0
  7 16  1  0
  6 17  1  0
  6 18  1  0
  5 19  1  0
  5 20  1  0
  4 21  1  0
  4 22  1  0
  3 23  1  0
  3 24  1  0
  1 25  1  0
M  END
$$$$
