
     RDKit          3D

 25 24  0  0  0  0  0  0  0  0999 V2000
  -10.2558    6.2646    4.0275 C   0  0  0  0  0  0  0  0  0  0  0  0
  -10.4616    5.0477    4.2917 O   0  0  0  0  0  0  0  0  0  0  0  0
   -9.3545    6.6996    2.9141 C   0  0  0  0  0  0  0  0  0  0  0  0
   -8.0404    6.0736    3.1529 C   0  0  0  0  0  0  0  0  0  0  0  0
   -7.1057    5.9122    2.0278 C   0  0  0  0  0  0  0  0  0  0  0  0
   -5.7566    5.3700    2.3056 C   0  0  0  0  0  0  0  0  0  0  0  0
   -4.9609    5.5297    0.9994 C   0  0  0  0  0  0  0  0  0  0  0  0
   -3.5459    5.0136    1.1868 C   0  0  0  0  0  0  0  0  0  0  0  0
   -3.2555    4.0472    0.0612 C   0  0  0  0  0  0  0  0  0  0  0  0
   -2.2224    3.2291    0.5026 F   0  0  0  0  0  0  0  0  0  0  0  0
   -4.3599    3.2957   -0.2409 F   0  0  0  0  0  0  0  0  0  0  0  0
   -2.8547    4.8157   -1.0202 F   0  0  0  0  0  0  0  0  0  0  0  0
   -2.7094    6.1051    1.1728 F   0  0  0  0  0  0  0  0  0  0  0  0
   -3.4166    4.3700    2.4006 F   0  0  0  0  0  0  0  0  0  0  0  0
   -4.8645    6.8750    0.6627 F   0  0  0  0  0  0  0  0  0  0  0  0
   -5.6098    4.9130   -0.0531 F   0  0  0  0  0  0  0  0  0  0  0  0
   -5.7340    3.9937    2.5299 F   0  0  0  0  0  0  0  0  0  0  0  0
   -5.0383    6.0476    3.2554 F   0  0  0  0  0  0  0  0  0  0  0  0
   -7.6779    5.1086    1.0450 F   0  0  0  0  0  0  0  0  0  0  0  0
   -6.9344    7.1515    1.4379 F   0  0  0  0  0  0  0  0  0  0  0  0
   -7.3894    6.7676    4.1561 F   0  0  0  0  0  0  0  0  0  0  0  0
   -8.2893    4.8106    3.7086 F   0  0  0  0  0  0  0  0  0  0  0  0
   -9.3729    8.0563    2.8898 F   0  0  0  0  0  0  0  0  0  0  0  0
   -9.9805    6.1865    1.7692 F   0  0  0  0  0  0  0  0  0  0  0  0
  -10.9201    7.1845    4.8368 O   0  0  0  0  0  0  0  0  0  0  0  0
  1  2  2  0
  1  3  1  0
  3  4  1  0
  4  5  1  0
  5  6  1  0
  6  7  1  0
  7  8  1  0
  8  9  1  0
  9 10  1  0
  9 11  1  0
  9 12  1  0
  8 13  1  0
  8 14  1  0
  7 15  1  0
  7 16  1  0
  6 17  1  0
  6 18  1  0
  5 19  1  0
  5 20  1  0
  4 21  1  0
  4 22  1  0
  3 23  1  0
  3 24  1  0
  1 25  1  0
M  END
$$$$
