
     RDKit          3D

 25 24  0  0  0  0  0  0  0  0999 V2000
  -17.0891   10.0293    7.7271 C   0  0  0  0  0  0  0  0  0  0  0  0
  -16.9752   11.2155    7.3112 O   0  0  0  0  0  0  0  0  0  0  0  0
  -16.1822    8.9305    7.2675 C   0  0  0  0  0  0  0  0  0  0  0  0
  -14.8480    9.5270    7.0680 C   0  0  0  0  0  0  0  0  0  0  0  0
  -13.7362    8.6706    6.6252 C   0  0  0  0  0  0  0  0  0  0  0  0
  -12.3603    9.2126    6.6917 C   0  0  0  0  0  0  0  0  0  0  0  0
  -11.4736    8.2048    5.9416 C   0  0  0  0  0  0  0  0  0  0  0  0
  -10.0124    8.5878    6.0896 C   0  0  0  0  0  0  0  0  0  0  0  0
   -9.2057    7.6850    5.1845 C   0  0  0  0  0  0  0  0  0  0  0  0
   -8.7876    6.6157    5.9676 F   0  0  0  0  0  0  0  0  0  0  0  0
   -9.9617    7.2369    4.1341 F   0  0  0  0  0  0  0  0  0  0  0  0
   -8.1250    8.4345    4.7472 F   0  0  0  0  0  0  0  0  0  0  0  0
   -9.9024    9.9144    5.7441 F   0  0  0  0  0  0  0  0  0  0  0  0
   -9.5959    8.4328    7.3961 F   0  0  0  0  0  0  0  0  0  0  0  0
  -11.7679    8.2312    4.5833 F   0  0  0  0  0  0  0  0  0  0  0  0
  -11.7238    6.9140    6.3667 F   0  0  0  0  0  0  0  0  0  0  0  0
  -11.8176    9.2249    7.9764 F   0  0  0  0  0  0  0  0  0  0  0  0
  -12.1721   10.4100    6.0532 F   0  0  0  0  0  0  0  0  0  0  0  0
  -13.7427    7.4750    7.3392 F   0  0  0  0  0  0  0  0  0  0  0  0
  -13.9724    8.3161    5.3092 F   0  0  0  0  0  0  0  0  0  0  0  0
  -14.9571   10.5821    6.1810 F   0  0  0  0  0  0  0  0  0  0  0  0
  -14.4887   10.1292    8.2822 F   0  0  0  0  0  0  0  0  0  0  0  0
  -16.7543    8.3698    6.1721 F   0  0  0  0  0  0  0  0  0  0  0  0
  -16.1983    8.0258    8.3386 F   0  0  0  0  0  0  0  0  0  0  0  0
  -18.1138    9.8009    8.6438 O   0  0  0  0  0  0  0  0  0  0  0  0
  1  2  2  0
  1  3  1  0
  3  4  1  0
  4  5  1  0
  5  6  1  0
  6  7  1  0
  7  8  1  0
  8  9  1  0
  9 10  1  0
  9 11  1  0
  9 12  1  0
  8 13  1  0
  8 14  1  0
  7 15  1  0
  7 16  1  0
  6 17  1  0
  6 18  1  0
  5 19  1  0
  5 20  1  0
  4 21  1  0
  4 22  1  0
  3 23  1  0
  3 24  1  0
  1 25  1  0
M  END
$$$$
