
     RDKit          3D

 25 24  0  0  0  0  0  0  0  0999 V2000
   -4.0252    2.4199   -3.6657 C   0  0  0  0  0  0  0  0  0  0  0  0
   -3.2752    2.3807   -2.6514 O   0  0  0  0  0  0  0  0  0  0  0  0
   -4.9672    3.5553   -3.9200 C   0  0  0  0  0  0  0  0  0  0  0  0
   -4.8639    4.4686   -2.7663 C   0  0  0  0  0  0  0  0  0  0  0  0
   -3.5338    4.8989   -2.3066 C   0  0  0  0  0  0  0  0  0  0  0  0
   -3.4542    5.9442   -1.2615 C   0  0  0  0  0  0  0  0  0  0  0  0
   -2.9704    5.2309    0.0121 C   0  0  0  0  0  0  0  0  0  0  0  0
   -3.0460    6.1760    1.1973 C   0  0  0  0  0  0  0  0  0  0  0  0
   -2.4791    5.4543    2.3986 C   0  0  0  0  0  0  0  0  0  0  0  0
   -1.1619    5.8788    2.5262 F   0  0  0  0  0  0  0  0  0  0  0  0
   -3.1862    5.7537    3.5326 F   0  0  0  0  0  0  0  0  0  0  0  0
   -2.5401    4.1010    2.1062 F   0  0  0  0  0  0  0  0  0  0  0  0
   -2.3241    7.2995    0.8687 F   0  0  0  0  0  0  0  0  0  0  0  0
   -4.3523    6.5443    1.4468 F   0  0  0  0  0  0  0  0  0  0  0  0
   -1.6389    4.8571   -0.1288 F   0  0  0  0  0  0  0  0  0  0  0  0
   -3.6794    4.0641    0.2247 F   0  0  0  0  0  0  0  0  0  0  0  0
   -4.6919    6.4666   -0.8871 F   0  0  0  0  0  0  0  0  0  0  0  0
   -2.5379    6.9357   -1.4946 F   0  0  0  0  0  0  0  0  0  0  0  0
   -2.8109    3.8011   -1.8468 F   0  0  0  0  0  0  0  0  0  0  0  0
   -2.8362    5.3663   -3.4057 F   0  0  0  0  0  0  0  0  0  0  0  0
   -5.6168    5.5999   -3.0217 F   0  0  0  0  0  0  0  0  0  0  0  0
   -5.5236    3.8458   -1.6973 F   0  0  0  0  0  0  0  0  0  0  0  0
   -6.1922    3.0174   -4.1466 F   0  0  0  0  0  0  0  0  0  0  0  0
   -4.4683    4.1351   -5.0952 F   0  0  0  0  0  0  0  0  0  0  0  0
   -3.9249    1.3389   -4.5397 O   0  0  0  0  0  0  0  0  0  0  0  0
  1  2  2  0
  1  3  1  0
  3  4  1  0
  4  5  1  0
  5  6  1  0
  6  7  1  0
  7  8  1  0
  8  9  1  0
  9 10  1  0
  9 11  1  0
  9 12  1  0
  8 13  1  0
  8 14  1  0
  7 15  1  0
  7 16  1  0
  6 17  1  0
  6 18  1  0
  5 19  1  0
  5 20  1  0
  4 21  1  0
  4 22  1  0
  3 23  1  0
  3 24  1  0
  1 25  1  0
M  END
$$$$
