
     RDKit          3D

 25 24  0  0  0  0  0  0  0  0999 V2000
   -7.0678    8.0705   -7.7094 C   0  0  0  0  0  0  0  0  0  0  0  0
   -6.7680    7.0752   -8.4253 O   0  0  0  0  0  0  0  0  0  0  0  0
   -6.8171    8.0985   -6.2338 C   0  0  0  0  0  0  0  0  0  0  0  0
   -6.0618    6.8759   -5.9010 C   0  0  0  0  0  0  0  0  0  0  0  0
   -5.5301    6.7074   -4.5391 C   0  0  0  0  0  0  0  0  0  0  0  0
   -5.1712    5.3443   -4.0872 C   0  0  0  0  0  0  0  0  0  0  0  0
   -4.5272    5.5156   -2.7014 C   0  0  0  0  0  0  0  0  0  0  0  0
   -4.0254    4.1765   -2.1927 C   0  0  0  0  0  0  0  0  0  0  0  0
   -3.5426    4.3745   -0.7739 C   0  0  0  0  0  0  0  0  0  0  0  0
   -2.3310    5.0496   -0.8619 F   0  0  0  0  0  0  0  0  0  0  0  0
   -4.4417    5.1062   -0.0446 F   0  0  0  0  0  0  0  0  0  0  0  0
   -3.3690    3.1074   -0.2398 F   0  0  0  0  0  0  0  0  0  0  0  0
   -5.0750    3.2913   -2.2732 F   0  0  0  0  0  0  0  0  0  0  0  0
   -2.9905    3.7114   -2.9781 F   0  0  0  0  0  0  0  0  0  0  0  0
   -5.4733    5.9709   -1.7903 F   0  0  0  0  0  0  0  0  0  0  0  0
   -3.5303    6.4718   -2.7344 F   0  0  0  0  0  0  0  0  0  0  0  0
   -4.1612    4.7454   -4.8396 F   0  0  0  0  0  0  0  0  0  0  0  0
   -6.2286    4.4944   -3.8955 F   0  0  0  0  0  0  0  0  0  0  0  0
   -4.4046    7.5086   -4.3650 F   0  0  0  0  0  0  0  0  0  0  0  0
   -6.4725    7.1968   -3.6527 F   0  0  0  0  0  0  0  0  0  0  0  0
   -6.8415    5.7732   -6.1973 F   0  0  0  0  0  0  0  0  0  0  0  0
   -4.9945    6.8009   -6.8072 F   0  0  0  0  0  0  0  0  0  0  0  0
   -8.0214    8.2394   -5.6247 F   0  0  0  0  0  0  0  0  0  0  0  0
   -6.0466    9.2565   -6.0565 F   0  0  0  0  0  0  0  0  0  0  0  0
   -7.6490    9.1475   -8.3763 O   0  0  0  0  0  0  0  0  0  0  0  0
  1  2  2  0
  1  3  1  0
  3  4  1  0
  4  5  1  0
  5  6  1  0
  6  7  1  0
  7  8  1  0
  8  9  1  0
  9 10  1  0
  9 11  1  0
  9 12  1  0
  8 13  1  0
  8 14  1  0
  7 15  1  0
  7 16  1  0
  6 17  1  0
  6 18  1  0
  5 19  1  0
  5 20  1  0
  4 21  1  0
  4 22  1  0
  3 23  1  0
  3 24  1  0
  1 25  1  0
M  END
$$$$
