
     RDKit          3D

 39 38  0  0  0  0  0  0  0  0999 V2000
   14.4542  -52.1336   -0.5349 C   0  0  0  0  0  0  0  0  0  0  0  0
   13.4634  -53.1917   -0.1805 C   0  0  0  0  0  0  0  0  0  0  0  0
   13.2304  -54.0333   -1.1138 O   0  0  0  0  0  0  0  0  0  0  0  0
   12.8220  -53.2788    1.0773 N   0  0  0  0  0  0  0  0  0  0  0  0
   11.9024  -54.2824    1.5012 C   0  0  0  0  0  0  0  0  0  0  0  0
   11.3341  -54.0759    2.9004 C   0  0  0  0  0  0  0  0  0  0  0  0
   10.3832  -55.1754    3.2387 C   0  0  0  0  0  0  0  0  0  0  0  0
    9.7250  -55.0015    4.6160 C   0  0  0  0  0  0  0  0  0  0  0  0
    8.5654  -54.1003    4.4669 C   0  0  0  0  0  0  0  0  0  0  0  0
    7.7441  -53.8598    5.6032 N   0  0  0  0  0  0  0  0  0  0  0  0
    6.6010  -52.9668    5.5937 C   0  0  0  0  0  0  0  0  0  0  0  0
    6.3309  -52.4182    4.5095 O   0  0  0  0  0  0  0  0  0  0  0  0
    5.9037  -52.8269    6.8679 C   0  0  0  0  0  0  0  0  0  0  0  0
    4.7425  -51.8863    6.9052 C   0  0  0  0  0  0  0  0  0  0  0  0
    3.7963  -52.1554    8.0185 C   0  0  0  0  0  0  0  0  0  0  0  0
    3.9030  -53.2304    8.6804 O   0  0  0  0  0  0  0  0  0  0  0  0
    2.7530  -51.2312    8.3793 N   0  0  0  0  0  0  0  0  0  0  0  0
    2.4599  -50.0317    7.6827 C   0  0  0  0  0  0  0  0  0  0  0  0
    1.3597  -49.2129    8.1938 C   0  0  0  0  0  0  0  0  0  0  0  0
    0.9237  -47.9318    7.6725 C   0  0  0  0  0  0  0  0  0  0  0  0
   -0.2637  -47.2251    8.1906 C   0  0  0  0  0  0  0  0  0  0  0  0
   -0.4624  -45.8636    7.5318 C   0  0  0  0  0  0  0  0  0  0  0  0
   -1.5671  -45.1412    8.0464 N   0  0  0  0  0  0  0  0  0  0  0  0
   -2.1823  -43.9863    7.4595 C   0  0  0  0  0  0  0  0  0  0  0  0
   -1.6898  -43.5593    6.4109 O   0  0  0  0  0  0  0  0  0  0  0  0
   -3.3399  -43.4365    8.1909 C   0  0  0  0  0  0  0  0  0  0  0  0
   -4.0516  -42.3136    7.5192 C   0  0  0  0  0  0  0  0  0  0  0  0
   -5.3471  -42.6877    6.9205 C   0  0  0  0  0  0  0  0  0  0  0  0
   -5.7930  -43.8402    6.9992 O   0  0  0  0  0  0  0  0  0  0  0  0
   -6.0480  -41.6161    6.2423 N   0  0  0  0  0  0  0  0  0  0  0  0
   -7.3593  -41.7647    5.6862 C   0  0  0  0  0  0  0  0  0  0  0  0
   -7.6209  -40.9272    4.4692 C   0  0  0  0  0  0  0  0  0  0  0  0
   -9.0153  -41.0688    3.9135 C   0  0  0  0  0  0  0  0  0  0  0  0
   -9.1970  -40.2329    2.6827 C   0  0  0  0  0  0  0  0  0  0  0  0
  -10.5158  -40.5836    2.0187 C   0  0  0  0  0  0  0  0  0  0  0  0
  -10.6932  -39.7812    0.8257 N   0  0  0  0  0  0  0  0  0  0  0  0
   -5.4648  -40.3832    6.1186 O   0  0  0  0  0  0  0  0  0  0  0  0
    1.9880  -51.5338    9.4722 O   0  0  0  0  0  0  0  0  0  0  0  0
   13.1241  -52.2883    1.9788 O   0  0  0  0  0  0  0  0  0  0  0  0
  1  2  1  0
  2  3  2  0
  2  4  1  0
  4  5  1  0
  5  6  1  0
  6  7  1  0
  7  8  1  0
  8  9  1  0
  9 10  1  0
 10 11  1  0
 11 12  2  0
 11 13  1  0
 13 14  1  0
 14 15  1  0
 15 16  2  0
 15 17  1  0
 17 18  1  0
 18 19  1  0
 19 20  1  0
 20 21  1  0
 21 22  1  0
 22 23  1  0
 23 24  1  0
 24 25  2  0
 24 26  1  0
 26 27  1  0
 27 28  1  0
 28 29  2  0
 28 30  1  0
 30 31  1  0
 31 32  1  0
 32 33  1  0
 33 34  1  0
 34 35  1  0
 35 36  1  0
 30 37  1  0
 17 38  1  0
  4 39  1  0
M  END
$$$$
