
     RDKit          3D

 39 38  0  0  0  0  0  0  0  0999 V2000
    3.0865  -53.5376    7.2250 C   0  0  0  0  0  0  0  0  0  0  0  0
    1.7078  -53.5515    6.6543 C   0  0  0  0  0  0  0  0  0  0  0  0
    1.6443  -53.9181    5.4314 O   0  0  0  0  0  0  0  0  0  0  0  0
    0.5506  -53.1943    7.3852 N   0  0  0  0  0  0  0  0  0  0  0  0
   -0.7992  -53.2443    6.9287 C   0  0  0  0  0  0  0  0  0  0  0  0
   -1.8350  -52.7924    7.9516 C   0  0  0  0  0  0  0  0  0  0  0  0
   -1.8973  -51.3020    7.9991 C   0  0  0  0  0  0  0  0  0  0  0  0
   -3.0289  -50.7737    8.8939 C   0  0  0  0  0  0  0  0  0  0  0  0
   -2.9073  -49.3049    8.9790 C   0  0  0  0  0  0  0  0  0  0  0  0
   -1.6987  -48.7538    9.4880 N   0  0  0  0  0  0  0  0  0  0  0  0
   -1.3446  -48.7563   10.8947 C   0  0  0  0  0  0  0  0  0  0  0  0
   -2.2873  -48.7350   11.7072 O   0  0  0  0  0  0  0  0  0  0  0  0
    0.0859  -48.7879   11.1813 C   0  0  0  0  0  0  0  0  0  0  0  0
    0.6113  -50.0032   11.8752 C   0  0  0  0  0  0  0  0  0  0  0  0
    2.0790  -49.9685   12.1031 C   0  0  0  0  0  0  0  0  0  0  0  0
    2.7801  -49.0924   11.5149 O   0  0  0  0  0  0  0  0  0  0  0  0
    2.7421  -50.9006   12.9773 N   0  0  0  0  0  0  0  0  0  0  0  0
    4.1157  -50.8456   13.3244 C   0  0  0  0  0  0  0  0  0  0  0  0
    4.6478  -51.9482   14.1263 C   0  0  0  0  0  0  0  0  0  0  0  0
    5.9519  -52.0040   14.7583 C   0  0  0  0  0  0  0  0  0  0  0  0
    6.9916  -50.9826   14.5274 C   0  0  0  0  0  0  0  0  0  0  0  0
    6.5489  -49.9192   13.5272 C   0  0  0  0  0  0  0  0  0  0  0  0
    7.6184  -49.1465   13.0113 N   0  0  0  0  0  0  0  0  0  0  0  0
    8.2502  -48.0276   13.6481 C   0  0  0  0  0  0  0  0  0  0  0  0
    7.5542  -47.3468   14.4074 O   0  0  0  0  0  0  0  0  0  0  0  0
    9.6713  -47.8178   13.3108 C   0  0  0  0  0  0  0  0  0  0  0  0
   10.3804  -46.7892   14.1218 C   0  0  0  0  0  0  0  0  0  0  0  0
   10.5107  -47.1278   15.5519 C   0  0  0  0  0  0  0  0  0  0  0  0
   10.0570  -48.1823   16.0161 O   0  0  0  0  0  0  0  0  0  0  0  0
   11.2017  -46.1437   16.3605 N   0  0  0  0  0  0  0  0  0  0  0  0
   11.4041  -46.2891   17.7707 C   0  0  0  0  0  0  0  0  0  0  0  0
   12.1923  -45.1823   18.4066 C   0  0  0  0  0  0  0  0  0  0  0  0
   12.4249  -45.3640   19.8853 C   0  0  0  0  0  0  0  0  0  0  0  0
   13.1872  -44.2092   20.4612 C   0  0  0  0  0  0  0  0  0  0  0  0
   13.4043  -44.4320   21.9466 C   0  0  0  0  0  0  0  0  0  0  0  0
   14.1247  -43.3090   22.5110 N   0  0  0  0  0  0  0  0  0  0  0  0
   11.7108  -45.0123   15.7807 O   0  0  0  0  0  0  0  0  0  0  0  0
    1.9919  -51.9111   13.5132 O   0  0  0  0  0  0  0  0  0  0  0  0
    0.7592  -52.7550    8.6691 O   0  0  0  0  0  0  0  0  0  0  0  0
  1  2  1  0
  2  3  2  0
  2  4  1  0
  4  5  1  0
  5  6  1  0
  6  7  1  0
  7  8  1  0
  8  9  1  0
  9 10  1  0
 10 11  1  0
 11 12  2  0
 11 13  1  0
 13 14  1  0
 14 15  1  0
 15 16  2  0
 15 17  1  0
 17 18  1  0
 18 19  1  0
 19 20  1  0
 20 21  1  0
 21 22  1  0
 22 23  1  0
 23 24  1  0
 24 25  2  0
 24 26  1  0
 26 27  1  0
 27 28  1  0
 28 29  2  0
 28 30  1  0
 30 31  1  0
 31 32  1  0
 32 33  1  0
 33 34  1  0
 34 35  1  0
 35 36  1  0
 30 37  1  0
 17 38  1  0
  4 39  1  0
M  END
$$$$
