
     RDKit          3D

 39 38  0  0  0  0  0  0  0  0999 V2000
    8.6864  -43.0120    1.3499 C   0  0  0  0  0  0  0  0  0  0  0  0
    8.2267  -42.2696    2.5600 C   0  0  0  0  0  0  0  0  0  0  0  0
    9.1683  -41.7616    3.2593 O   0  0  0  0  0  0  0  0  0  0  0  0
    6.8676  -42.1244    2.9244 N   0  0  0  0  0  0  0  0  0  0  0  0
    5.7344  -42.6255    2.2191 C   0  0  0  0  0  0  0  0  0  0  0  0
    4.3942  -42.3582    2.8943 C   0  0  0  0  0  0  0  0  0  0  0  0
    3.2769  -42.8549    2.0384 C   0  0  0  0  0  0  0  0  0  0  0  0
    1.8886  -42.5468    2.6198 C   0  0  0  0  0  0  0  0  0  0  0  0
    0.8697  -43.1280    1.7236 C   0  0  0  0  0  0  0  0  0  0  0  0
   -0.2867  -42.3562    1.4222 N   0  0  0  0  0  0  0  0  0  0  0  0
   -1.3171  -42.7818    0.4941 C   0  0  0  0  0  0  0  0  0  0  0  0
   -1.9021  -41.8844   -0.1396 O   0  0  0  0  0  0  0  0  0  0  0  0
   -1.5362  -44.2225    0.4177 C   0  0  0  0  0  0  0  0  0  0  0  0
   -0.3405  -45.1005    0.6018 C   0  0  0  0  0  0  0  0  0  0  0  0
    0.6427  -45.0045   -0.5078 C   0  0  0  0  0  0  0  0  0  0  0  0
    0.3908  -44.2586   -1.5004 O   0  0  0  0  0  0  0  0  0  0  0  0
    1.8847  -45.7326   -0.4978 N   0  0  0  0  0  0  0  0  0  0  0  0
    2.0316  -47.0734   -0.0611 C   0  0  0  0  0  0  0  0  0  0  0  0
    3.3748  -47.6519   -0.1172 C   0  0  0  0  0  0  0  0  0  0  0  0
    4.5592  -47.1487    0.5517 C   0  0  0  0  0  0  0  0  0  0  0  0
    5.7994  -47.9390    0.6740 C   0  0  0  0  0  0  0  0  0  0  0  0
    6.9107  -47.1696    1.3814 C   0  0  0  0  0  0  0  0  0  0  0  0
    8.2106  -47.6423    1.0748 N   0  0  0  0  0  0  0  0  0  0  0  0
    8.9892  -48.5659    1.8477 C   0  0  0  0  0  0  0  0  0  0  0  0
    8.5599  -48.8640    2.9663 O   0  0  0  0  0  0  0  0  0  0  0  0
   10.2279  -49.0501    1.2086 C   0  0  0  0  0  0  0  0  0  0  0  0
   10.8562  -50.2422    1.8432 C   0  0  0  0  0  0  0  0  0  0  0  0
   10.0913  -51.4927    1.6759 C   0  0  0  0  0  0  0  0  0  0  0  0
    9.0292  -51.5272    1.0402 O   0  0  0  0  0  0  0  0  0  0  0  0
   10.6717  -52.6621    2.3047 N   0  0  0  0  0  0  0  0  0  0  0  0
   11.9055  -52.6315    3.0312 C   0  0  0  0  0  0  0  0  0  0  0  0
   12.8552  -53.7439    2.6976 C   0  0  0  0  0  0  0  0  0  0  0  0
   13.4512  -53.6501    1.3158 C   0  0  0  0  0  0  0  0  0  0  0  0
   14.3791  -54.7957    1.0456 C   0  0  0  0  0  0  0  0  0  0  0  0
   14.9469  -54.6717   -0.3564 C   0  0  0  0  0  0  0  0  0  0  0  0
   15.7027  -55.8625   -0.6868 N   0  0  0  0  0  0  0  0  0  0  0  0
   10.0317  -53.8706    2.2324 O   0  0  0  0  0  0  0  0  0  0  0  0
    3.0034  -45.0840   -0.9440 O   0  0  0  0  0  0  0  0  0  0  0  0
    6.6240  -41.4265    4.0814 O   0  0  0  0  0  0  0  0  0  0  0  0
  1  2  1  0
  2  3  2  0
  2  4  1  0
  4  5  1  0
  5  6  1  0
  6  7  1  0
  7  8  1  0
  8  9  1  0
  9 10  1  0
 10 11  1  0
 11 12  2  0
 11 13  1  0
 13 14  1  0
 14 15  1  0
 15 16  2  0
 15 17  1  0
 17 18  1  0
 18 19  1  0
 19 20  1  0
 20 21  1  0
 21 22  1  0
 22 23  1  0
 23 24  1  0
 24 25  2  0
 24 26  1  0
 26 27  1  0
 27 28  1  0
 28 29  2  0
 28 30  1  0
 30 31  1  0
 31 32  1  0
 32 33  1  0
 33 34  1  0
 34 35  1  0
 35 36  1  0
 30 37  1  0
 17 38  1  0
  4 39  1  0
M  END
$$$$
