
     RDKit          3D

 25 24  0  0  0  0  0  0  0  0999 V2000
    4.5712  -14.1490   10.5452 C   0  0  0  0  0  0  0  0  0  0  0  0
    4.0455  -14.3563    9.4032 O   0  0  0  0  0  0  0  0  0  0  0  0
    5.7084  -13.2095   10.7324 C   0  0  0  0  0  0  0  0  0  0  0  0
    5.1960  -11.8804   11.3198 C   0  0  0  0  0  0  0  0  0  0  0  0
    6.2972  -10.9160   11.5198 C   0  0  0  0  0  0  0  0  0  0  0  0
    5.9886   -9.5808   12.1057 C   0  0  0  0  0  0  0  0  0  0  0  0
    7.1010   -8.6719   12.4320 C   0  0  0  0  0  0  0  0  0  0  0  0
    6.7726   -7.4525   13.2193 C   0  0  0  0  0  0  0  0  0  0  0  0
    7.8234   -6.4387   13.4457 C   0  0  0  0  0  0  0  0  0  0  0  0
    7.2348   -5.4844   14.3195 F   0  0  0  0  0  0  0  0  0  0  0  0
    8.2124   -5.7435   12.3340 F   0  0  0  0  0  0  0  0  0  0  0  0
    8.9209   -6.8699   14.1738 F   0  0  0  0  0  0  0  0  0  0  0  0
    5.7267   -6.8170   12.5262 F   0  0  0  0  0  0  0  0  0  0  0  0
    6.2733   -7.7971   14.4875 F   0  0  0  0  0  0  0  0  0  0  0  0
    7.6430   -8.1645   11.2212 F   0  0  0  0  0  0  0  0  0  0  0  0
    8.1679   -9.3314   13.0148 F   0  0  0  0  0  0  0  0  0  0  0  0
    5.0796   -8.9195   11.2947 F   0  0  0  0  0  0  0  0  0  0  0  0
    5.3685   -9.9044   13.3405 F   0  0  0  0  0  0  0  0  0  0  0  0
    7.0471  -10.8149   10.3495 F   0  0  0  0  0  0  0  0  0  0  0  0
    7.1880  -11.5088   12.4409 F   0  0  0  0  0  0  0  0  0  0  0  0
    4.4228  -12.1452   12.4227 F   0  0  0  0  0  0  0  0  0  0  0  0
    4.3573  -11.3806   10.3017 F   0  0  0  0  0  0  0  0  0  0  0  0
    6.2619  -13.0004    9.4861 F   0  0  0  0  0  0  0  0  0  0  0  0
    6.6847  -13.7349   11.5540 F   0  0  0  0  0  0  0  0  0  0  0  0
    4.1025  -14.7973   11.6808 O   0  0  0  0  0  0  0  0  0  0  0  0
  1  2  2  0
  1  3  1  0
  3  4  1  0
  4  5  1  0
  5  6  1  0
  6  7  1  0
  7  8  1  0
  8  9  1  0
  9 10  1  0
  9 11  1  0
  9 12  1  0
  8 13  1  0
  8 14  1  0
  7 15  1  0
  7 16  1  0
  6 17  1  0
  6 18  1  0
  5 19  1  0
  5 20  1  0
  4 21  1  0
  4 22  1  0
  3 23  1  0
  3 24  1  0
  1 25  1  0
M  END
$$$$
