
     RDKit          3D

 25 24  0  0  0  0  0  0  0  0999 V2000
    4.6861  -14.1054   14.2153 C   0  0  0  0  0  0  0  0  0  0  0  0
    3.8335  -14.6968   13.4760 O   0  0  0  0  0  0  0  0  0  0  0  0
    4.6480  -12.6369   14.4458 C   0  0  0  0  0  0  0  0  0  0  0  0
    5.4358  -11.9139   13.3364 C   0  0  0  0  0  0  0  0  0  0  0  0
    5.5532  -10.4669   13.6102 C   0  0  0  0  0  0  0  0  0  0  0  0
    6.3325   -9.6156   12.6671 C   0  0  0  0  0  0  0  0  0  0  0  0
    6.3886   -8.1621   12.8998 C   0  0  0  0  0  0  0  0  0  0  0  0
    7.4073   -7.3913   12.1366 C   0  0  0  0  0  0  0  0  0  0  0  0
    7.4031   -5.9160   12.2198 C   0  0  0  0  0  0  0  0  0  0  0  0
    6.1227   -5.5222   11.7444 F   0  0  0  0  0  0  0  0  0  0  0  0
    8.3141   -5.2840   11.4191 F   0  0  0  0  0  0  0  0  0  0  0  0
    7.4174   -5.3911   13.5023 F   0  0  0  0  0  0  0  0  0  0  0  0
    8.6566   -7.8292   12.6114 F   0  0  0  0  0  0  0  0  0  0  0  0
    7.3538   -7.7120   10.7690 F   0  0  0  0  0  0  0  0  0  0  0  0
    6.7304   -7.9328   14.2593 F   0  0  0  0  0  0  0  0  0  0  0  0
    5.1510   -7.5584   12.7693 F   0  0  0  0  0  0  0  0  0  0  0  0
    7.6219  -10.1117   12.5550 F   0  0  0  0  0  0  0  0  0  0  0  0
    5.6520   -9.7916   11.4343 F   0  0  0  0  0  0  0  0  0  0  0  0
    5.9405  -10.2726   14.9348 F   0  0  0  0  0  0  0  0  0  0  0  0
    4.2438   -9.9412   13.5613 F   0  0  0  0  0  0  0  0  0  0  0  0
    4.9065  -12.2525   12.1160 F   0  0  0  0  0  0  0  0  0  0  0  0
    6.7231  -12.4825   13.4330 F   0  0  0  0  0  0  0  0  0  0  0  0
    5.2339  -12.4110   15.6742 F   0  0  0  0  0  0  0  0  0  0  0  0
    3.3566  -12.1526   14.4896 F   0  0  0  0  0  0  0  0  0  0  0  0
    5.7018  -14.8112   14.8475 O   0  0  0  0  0  0  0  0  0  0  0  0
  1  2  2  0
  1  3  1  0
  3  4  1  0
  4  5  1  0
  5  6  1  0
  6  7  1  0
  7  8  1  0
  8  9  1  0
  9 10  1  0
  9 11  1  0
  9 12  1  0
  8 13  1  0
  8 14  1  0
  7 15  1  0
  7 16  1  0
  6 17  1  0
  6 18  1  0
  5 19  1  0
  5 20  1  0
  4 21  1  0
  4 22  1  0
  3 23  1  0
  3 24  1  0
  1 25  1  0
M  END
$$$$
