
     RDKit          3D

 25 24  0  0  0  0  0  0  0  0999 V2000
  -13.7785  -10.8725  -10.2277 C   0  0  0  0  0  0  0  0  0  0  0  0
  -14.9438  -10.3629  -10.3048 O   0  0  0  0  0  0  0  0  0  0  0  0
  -13.2124  -11.3585   -8.9415 C   0  0  0  0  0  0  0  0  0  0  0  0
  -12.2733  -10.2909   -8.3481 C   0  0  0  0  0  0  0  0  0  0  0  0
  -11.4640  -10.8370   -7.2393 C   0  0  0  0  0  0  0  0  0  0  0  0
  -10.5273   -9.9310   -6.5162 C   0  0  0  0  0  0  0  0  0  0  0  0
   -9.8500  -10.4260   -5.3053 C   0  0  0  0  0  0  0  0  0  0  0  0
   -8.6884   -9.6400   -4.8079 C   0  0  0  0  0  0  0  0  0  0  0  0
   -7.8859  -10.1741   -3.6881 C   0  0  0  0  0  0  0  0  0  0  0  0
   -7.4009  -11.4294   -4.1461 F   0  0  0  0  0  0  0  0  0  0  0  0
   -8.5850  -10.4348   -2.5418 F   0  0  0  0  0  0  0  0  0  0  0  0
   -6.7147   -9.4865   -3.4126 F   0  0  0  0  0  0  0  0  0  0  0  0
   -7.8221   -9.4965   -5.9065 F   0  0  0  0  0  0  0  0  0  0  0  0
   -9.0870   -8.3462   -4.4292 F   0  0  0  0  0  0  0  0  0  0  0  0
   -9.3053  -11.7083   -5.5817 F   0  0  0  0  0  0  0  0  0  0  0  0
  -10.7323  -10.6643   -4.2670 F   0  0  0  0  0  0  0  0  0  0  0  0
   -9.5808   -9.4421   -7.4029 F   0  0  0  0  0  0  0  0  0  0  0  0
  -11.3672   -8.8686   -6.0919 F   0  0  0  0  0  0  0  0  0  0  0  0
  -10.8422  -12.0142   -7.6513 F   0  0  0  0  0  0  0  0  0  0  0  0
  -12.3755  -11.2657   -6.2499 F   0  0  0  0  0  0  0  0  0  0  0  0
  -13.0005   -9.1626   -8.0608 F   0  0  0  0  0  0  0  0  0  0  0  0
  -11.4041   -9.9957   -9.4190 F   0  0  0  0  0  0  0  0  0  0  0  0
  -12.5087  -12.5106   -9.2259 F   0  0  0  0  0  0  0  0  0  0  0  0
  -14.1975  -11.6709   -8.0270 F   0  0  0  0  0  0  0  0  0  0  0  0
  -12.9736  -10.9997  -11.3526 O   0  0  0  0  0  0  0  0  0  0  0  0
  1  2  2  0
  1  3  1  0
  3  4  1  0
  4  5  1  0
  5  6  1  0
  6  7  1  0
  7  8  1  0
  8  9  1  0
  9 10  1  0
  9 11  1  0
  9 12  1  0
  8 13  1  0
  8 14  1  0
  7 15  1  0
  7 16  1  0
  6 17  1  0
  6 18  1  0
  5 19  1  0
  5 20  1  0
  4 21  1  0
  4 22  1  0
  3 23  1  0
  3 24  1  0
  1 25  1  0
M  END
$$$$
