
     RDKit          3D

 25 24  0  0  0  0  0  0  0  0999 V2000
   -0.5563  -20.0115    0.7615 C   0  0  0  0  0  0  0  0  0  0  0  0
   -1.6233  -20.2847    1.4020 O   0  0  0  0  0  0  0  0  0  0  0  0
    0.7387  -19.7691    1.4510 C   0  0  0  0  0  0  0  0  0  0  0  0
    0.8203  -18.2995    1.9065 C   0  0  0  0  0  0  0  0  0  0  0  0
    2.0586  -18.0362    2.6680 C   0  0  0  0  0  0  0  0  0  0  0  0
    2.1895  -16.7496    3.4089 C   0  0  0  0  0  0  0  0  0  0  0  0
    3.3906  -16.5196    4.2301 C   0  0  0  0  0  0  0  0  0  0  0  0
    3.4620  -15.2390    4.9848 C   0  0  0  0  0  0  0  0  0  0  0  0
    4.5998  -15.0055    5.8980 C   0  0  0  0  0  0  0  0  0  0  0  0
    4.3375  -13.7455    6.5014 F   0  0  0  0  0  0  0  0  0  0  0  0
    5.8199  -14.8871    5.2914 F   0  0  0  0  0  0  0  0  0  0  0  0
    4.6678  -15.8507    6.9942 F   0  0  0  0  0  0  0  0  0  0  0  0
    3.4946  -14.2217    4.0143 F   0  0  0  0  0  0  0  0  0  0  0  0
    2.2958  -15.0425    5.7449 F   0  0  0  0  0  0  0  0  0  0  0  0
    4.5242  -16.4793    3.3753 F   0  0  0  0  0  0  0  0  0  0  0  0
    3.6606  -17.5780    5.0786 F   0  0  0  0  0  0  0  0  0  0  0  0
    2.0268  -15.6913    2.5288 F   0  0  0  0  0  0  0  0  0  0  0  0
    1.0950  -16.7830    4.3117 F   0  0  0  0  0  0  0  0  0  0  0  0
    3.1658  -18.2920    1.8612 F   0  0  0  0  0  0  0  0  0  0  0  0
    2.1339  -19.0294    3.6686 F   0  0  0  0  0  0  0  0  0  0  0  0
   -0.3527  -17.9573    2.5319 F   0  0  0  0  0  0  0  0  0  0  0  0
    0.8963  -17.5892    0.6902 F   0  0  0  0  0  0  0  0  0  0  0  0
    1.7345  -20.0430    0.5362 F   0  0  0  0  0  0  0  0  0  0  0  0
    0.9114  -20.6026    2.5371 F   0  0  0  0  0  0  0  0  0  0  0  0
   -0.5519  -19.9263   -0.6249 O   0  0  0  0  0  0  0  0  0  0  0  0
  1  2  2  0
  1  3  1  0
  3  4  1  0
  4  5  1  0
  5  6  1  0
  6  7  1  0
  7  8  1  0
  8  9  1  0
  9 10  1  0
  9 11  1  0
  9 12  1  0
  8 13  1  0
  8 14  1  0
  7 15  1  0
  7 16  1  0
  6 17  1  0
  6 18  1  0
  5 19  1  0
  5 20  1  0
  4 21  1  0
  4 22  1  0
  3 23  1  0
  3 24  1  0
  1 25  1  0
M  END
$$$$
