
     RDKit          3D

 25 24  0  0  0  0  0  0  0  0999 V2000
    0.4956  -15.6579   15.1282 C   0  0  0  0  0  0  0  0  0  0  0  0
    1.5394  -15.0489   14.7242 O   0  0  0  0  0  0  0  0  0  0  0  0
   -0.8040  -14.9597   15.3141 C   0  0  0  0  0  0  0  0  0  0  0  0
   -1.7868  -15.3824   14.2052 C   0  0  0  0  0  0  0  0  0  0  0  0
   -3.0327  -14.5901   14.2546 C   0  0  0  0  0  0  0  0  0  0  0  0
   -4.0978  -14.8581   13.2470 C   0  0  0  0  0  0  0  0  0  0  0  0
   -5.4286  -14.2569   13.4403 C   0  0  0  0  0  0  0  0  0  0  0  0
   -6.4974  -14.6516   12.4829 C   0  0  0  0  0  0  0  0  0  0  0  0
   -7.8932  -14.2540   12.7602 C   0  0  0  0  0  0  0  0  0  0  0  0
   -8.1611  -14.7336   14.0712 F   0  0  0  0  0  0  0  0  0  0  0  0
   -8.8346  -14.8256   11.9493 F   0  0  0  0  0  0  0  0  0  0  0  0
   -8.1100  -12.8917   12.8929 F   0  0  0  0  0  0  0  0  0  0  0  0
   -6.1405  -14.0773   11.2497 F   0  0  0  0  0  0  0  0  0  0  0  0
   -6.5107  -16.0449   12.2971 F   0  0  0  0  0  0  0  0  0  0  0  0
   -5.3200  -12.8504   13.2746 F   0  0  0  0  0  0  0  0  0  0  0  0
   -5.8879  -14.3970   14.7375 F   0  0  0  0  0  0  0  0  0  0  0  0
   -3.6291  -14.5364   11.9829 F   0  0  0  0  0  0  0  0  0  0  0  0
   -4.2826  -16.2623   13.3368 F   0  0  0  0  0  0  0  0  0  0  0  0
   -2.7206  -13.2346   14.3403 F   0  0  0  0  0  0  0  0  0  0  0  0
   -3.6412  -14.8751   15.4963 F   0  0  0  0  0  0  0  0  0  0  0  0
   -1.9412  -16.7460   14.2379 F   0  0  0  0  0  0  0  0  0  0  0  0
   -1.1004  -15.0435   13.0205 F   0  0  0  0  0  0  0  0  0  0  0  0
   -0.5446  -13.6070   15.2340 F   0  0  0  0  0  0  0  0  0  0  0  0
   -1.3591  -15.2187   16.5506 F   0  0  0  0  0  0  0  0  0  0  0  0
    0.5224  -17.0163   15.4172 O   0  0  0  0  0  0  0  0  0  0  0  0
  1  2  2  0
  1  3  1  0
  3  4  1  0
  4  5  1  0
  5  6  1  0
  6  7  1  0
  7  8  1  0
  8  9  1  0
  9 10  1  0
  9 11  1  0
  9 12  1  0
  8 13  1  0
  8 14  1  0
  7 15  1  0
  7 16  1  0
  6 17  1  0
  6 18  1  0
  5 19  1  0
  5 20  1  0
  4 21  1  0
  4 22  1  0
  3 23  1  0
  3 24  1  0
  1 25  1  0
M  END
$$$$
