
     RDKit          3D

 25 24  0  0  0  0  0  0  0  0999 V2000
   -7.0920   12.1220   -1.2549 C   0  0  0  0  0  0  0  0  0  0  0  0
   -7.3640   11.5029   -2.3348 O   0  0  0  0  0  0  0  0  0  0  0  0
   -5.9982   13.1261   -1.1741 C   0  0  0  0  0  0  0  0  0  0  0  0
   -5.0166   12.9240   -2.3444 C   0  0  0  0  0  0  0  0  0  0  0  0
   -3.8731   13.8556   -2.2596 C   0  0  0  0  0  0  0  0  0  0  0  0
   -2.8020   13.7780   -3.2931 C   0  0  0  0  0  0  0  0  0  0  0  0
   -1.9108   14.9354   -3.4834 C   0  0  0  0  0  0  0  0  0  0  0  0
   -0.8027   14.7847   -4.4652 C   0  0  0  0  0  0  0  0  0  0  0  0
    0.0475   15.9530   -4.7741 C   0  0  0  0  0  0  0  0  0  0  0  0
    0.6071   16.3435   -3.5271 F   0  0  0  0  0  0  0  0  0  0  0  0
   -0.6180   17.0494   -5.2493 F   0  0  0  0  0  0  0  0  0  0  0  0
    1.1749   15.6857   -5.5343 F   0  0  0  0  0  0  0  0  0  0  0  0
    0.0395   13.7859   -3.9446 F   0  0  0  0  0  0  0  0  0  0  0  0
   -1.2883   14.3102   -5.6962 F   0  0  0  0  0  0  0  0  0  0  0  0
   -1.2492   15.2057   -2.2560 F   0  0  0  0  0  0  0  0  0  0  0  0
   -2.6081   16.1019   -3.7407 F   0  0  0  0  0  0  0  0  0  0  0  0
   -2.0377   12.6413   -3.0817 F   0  0  0  0  0  0  0  0  0  0  0  0
   -3.5295   13.6372   -4.5034 F   0  0  0  0  0  0  0  0  0  0  0  0
   -3.3557   13.8425   -0.9657 F   0  0  0  0  0  0  0  0  0  0  0  0
   -4.4038   15.1566   -2.3974 F   0  0  0  0  0  0  0  0  0  0  0  0
   -5.7164   12.9390   -3.5252 F   0  0  0  0  0  0  0  0  0  0  0  0
   -4.5311   11.6163   -2.1350 F   0  0  0  0  0  0  0  0  0  0  0  0
   -5.3568   12.9205    0.0299 F   0  0  0  0  0  0  0  0  0  0  0  0
   -6.4798   14.4192   -1.1896 F   0  0  0  0  0  0  0  0  0  0  0  0
   -7.8113   11.8862   -0.0903 O   0  0  0  0  0  0  0  0  0  0  0  0
  1  2  2  0
  1  3  1  0
  3  4  1  0
  4  5  1  0
  5  6  1  0
  6  7  1  0
  7  8  1  0
  8  9  1  0
  9 10  1  0
  9 11  1  0
  9 12  1  0
  8 13  1  0
  8 14  1  0
  7 15  1  0
  7 16  1  0
  6 17  1  0
  6 18  1  0
  5 19  1  0
  5 20  1  0
  4 21  1  0
  4 22  1  0
  3 23  1  0
  3 24  1  0
  1 25  1  0
M  END
$$$$
