
     RDKit          3D

 29 28  0  0  0  0  0  0  0  0999 V2000
   -3.0032    2.0902   -4.9771 C   0  0  0  0  0  0  0  0  0  0  0  0
   -2.7092    2.8151   -6.2566 C   0  0  0  0  0  0  0  0  0  0  0  0
   -2.7327    2.0748   -7.5232 C   0  0  0  0  0  0  0  0  0  0  0  0
   -2.6670    2.8988   -8.7500 C   0  0  0  0  0  0  0  0  0  0  0  0
   -2.8665    2.3200  -10.0784 C   0  0  0  0  0  0  0  0  0  0  0  0
   -4.1317    1.6899   -9.9982 F   0  0  0  0  0  0  0  0  0  0  0  0
   -2.0520    1.2435  -10.4077 F   0  0  0  0  0  0  0  0  0  0  0  0
   -3.0701    3.4688  -11.3955 S   0  0  0  0  0  0  0  0  0  0  0  0
   -4.0963    4.4979  -10.9555 O   0  0  0  0  0  0  0  0  0  0  0  0
   -3.5722    2.8831  -12.6633 O   0  0  0  0  0  0  0  0  0  0  0  0
   -1.5963    4.2591  -11.5991 O   0  0  0  0  0  0  0  0  0  0  0  0
   -1.4105    3.5210   -8.7619 F   0  0  0  0  0  0  0  0  0  0  0  0
   -3.5640    3.9473   -8.5868 F   0  0  0  0  0  0  0  0  0  0  0  0
   -3.7452    1.1149   -7.5476 F   0  0  0  0  0  0  0  0  0  0  0  0
   -1.5657    1.2897   -7.6430 F   0  0  0  0  0  0  0  0  0  0  0  0
   -3.7268    3.7878   -6.2792 F   0  0  0  0  0  0  0  0  0  0  0  0
   -1.4922    3.4543   -6.1176 F   0  0  0  0  0  0  0  0  0  0  0  0
   -2.9758    2.8128   -3.7184 C   0  0  0  0  0  0  0  0  0  0  0  0
   -4.0864    2.4869   -2.7689 C   0  0  0  0  0  0  0  0  0  0  0  0
   -4.2001    3.2845   -1.5157 C   0  0  0  0  0  0  0  0  0  0  0  0
   -5.3223    2.7229   -0.8377 F   0  0  0  0  0  0  0  0  0  0  0  0
   -3.1786    3.0712   -0.6004 F   0  0  0  0  0  0  0  0  0  0  0  0
   -4.5057    4.5905   -1.7228 F   0  0  0  0  0  0  0  0  0  0  0  0
   -4.0750    1.1511   -2.3850 F   0  0  0  0  0  0  0  0  0  0  0  0
   -5.3368    2.6308   -3.4141 F   0  0  0  0  0  0  0  0  0  0  0  0
   -1.8202    2.5071   -2.9572 F   0  0  0  0  0  0  0  0  0  0  0  0
   -3.0401    4.2031   -3.8805 F   0  0  0  0  0  0  0  0  0  0  0  0
   -2.0155    1.0836   -4.9052 F   0  0  0  0  0  0  0  0  0  0  0  0
   -4.1978    1.4342   -5.1585 F   0  0  0  0  0  0  0  0  0  0  0  0
  1  2  1  0
  2  3  1  0
  3  4  1  0
  4  5  1  0
  5  6  1  0
  5  7  1  0
  5  8  1  0
  8  9  2  0
  8 10  2  0
  8 11  1  0
  4 12  1  0
  4 13  1  0
  3 14  1  0
  3 15  1  0
  2 16  1  0
  2 17  1  0
  1 18  1  0
 18 19  1  0
 19 20  1  0
 20 21  1  0
 20 22  1  0
 20 23  1  0
 19 24  1  0
 19 25  1  0
 18 26  1  0
 18 27  1  0
  1 28  1  0
  1 29  1  0
M  END
$$$$
