
     RDKit          3D

 29 28  0  0  0  0  0  0  0  0999 V2000
   -2.5503    2.6577   -6.7693 C   0  0  0  0  0  0  0  0  0  0  0  0
   -3.0948    2.6337   -8.1664 C   0  0  0  0  0  0  0  0  0  0  0  0
   -2.3065    3.2227   -9.2547 C   0  0  0  0  0  0  0  0  0  0  0  0
   -2.9894    3.3185  -10.5634 C   0  0  0  0  0  0  0  0  0  0  0  0
   -2.5885    4.2994  -11.5717 C   0  0  0  0  0  0  0  0  0  0  0  0
   -1.2358    3.9847  -11.8463 F   0  0  0  0  0  0  0  0  0  0  0  0
   -2.4744    5.6144  -11.1376 F   0  0  0  0  0  0  0  0  0  0  0  0
   -3.3655    4.1488  -13.1431 S   0  0  0  0  0  0  0  0  0  0  0  0
   -4.7677    4.7186  -13.0209 O   0  0  0  0  0  0  0  0  0  0  0  0
   -3.5141    2.7568  -13.6358 O   0  0  0  0  0  0  0  0  0  0  0  0
   -2.5036    5.1165  -14.2195 O   0  0  0  0  0  0  0  0  0  0  0  0
   -4.3501    3.5350  -10.3035 F   0  0  0  0  0  0  0  0  0  0  0  0
   -2.9502    2.0542  -11.1384 F   0  0  0  0  0  0  0  0  0  0  0  0
   -1.0273    2.6705   -9.3302 F   0  0  0  0  0  0  0  0  0  0  0  0
   -2.0365    4.5794   -8.9730 F   0  0  0  0  0  0  0  0  0  0  0  0
   -3.2322    1.2522   -8.4003 F   0  0  0  0  0  0  0  0  0  0  0  0
   -4.3531    3.2040   -8.1462 F   0  0  0  0  0  0  0  0  0  0  0  0
   -3.2783    1.9956   -5.7020 C   0  0  0  0  0  0  0  0  0  0  0  0
   -2.5920    1.9818   -4.3717 C   0  0  0  0  0  0  0  0  0  0  0  0
   -3.2788    1.3149   -3.2303 C   0  0  0  0  0  0  0  0  0  0  0  0
   -2.3381    1.3834   -2.1603 F   0  0  0  0  0  0  0  0  0  0  0  0
   -4.3538    2.0222   -2.7098 F   0  0  0  0  0  0  0  0  0  0  0  0
   -3.5191   -0.0057   -3.4307 F   0  0  0  0  0  0  0  0  0  0  0  0
   -2.2597    3.2599   -3.9381 F   0  0  0  0  0  0  0  0  0  0  0  0
   -1.3378    1.3363   -4.4774 F   0  0  0  0  0  0  0  0  0  0  0  0
   -4.5016    2.6491   -5.4107 F   0  0  0  0  0  0  0  0  0  0  0  0
   -3.5537    0.6495   -5.9765 F   0  0  0  0  0  0  0  0  0  0  0  0
   -2.4781    4.0291   -6.4407 F   0  0  0  0  0  0  0  0  0  0  0  0
   -1.2495    2.2186   -6.8430 F   0  0  0  0  0  0  0  0  0  0  0  0
  1  2  1  0
  2  3  1  0
  3  4  1  0
  4  5  1  0
  5  6  1  0
  5  7  1  0
  5  8  1  0
  8  9  2  0
  8 10  2  0
  8 11  1  0
  4 12  1  0
  4 13  1  0
  3 14  1  0
  3 15  1  0
  2 16  1  0
  2 17  1  0
  1 18  1  0
 18 19  1  0
 19 20  1  0
 20 21  1  0
 20 22  1  0
 20 23  1  0
 19 24  1  0
 19 25  1  0
 18 26  1  0
 18 27  1  0
  1 28  1  0
  1 29  1  0
M  END
$$$$
