
     RDKit          3D

 29 28  0  0  0  0  0  0  0  0999 V2000
   -0.8763   -9.1204   -2.8542 C   0  0  0  0  0  0  0  0  0  0  0  0
    0.4392   -8.7955   -2.2116 C   0  0  0  0  0  0  0  0  0  0  0  0
    1.6119   -8.5523   -3.0592 C   0  0  0  0  0  0  0  0  0  0  0  0
    2.7995   -8.0019   -2.3700 C   0  0  0  0  0  0  0  0  0  0  0  0
    4.0499   -7.7381   -3.0816 C   0  0  0  0  0  0  0  0  0  0  0  0
    3.6827   -6.8372   -4.1102 F   0  0  0  0  0  0  0  0  0  0  0  0
    4.5689   -8.7928   -3.8226 F   0  0  0  0  0  0  0  0  0  0  0  0
    5.2735   -6.8486   -2.1831 S   0  0  0  0  0  0  0  0  0  0  0  0
    4.5635   -5.7805   -1.3702 O   0  0  0  0  0  0  0  0  0  0  0  0
    6.2774   -6.1472   -3.0214 O   0  0  0  0  0  0  0  0  0  0  0  0
    5.9869   -7.9313   -1.1077 O   0  0  0  0  0  0  0  0  0  0  0  0
    3.1070   -8.8757   -1.3174 F   0  0  0  0  0  0  0  0  0  0  0  0
    2.3985   -6.8328   -1.7352 F   0  0  0  0  0  0  0  0  0  0  0  0
    1.2773   -7.8690   -4.2290 F   0  0  0  0  0  0  0  0  0  0  0  0
    2.1101   -9.7771   -3.5537 F   0  0  0  0  0  0  0  0  0  0  0  0
    0.1343   -7.6152   -1.5074 F   0  0  0  0  0  0  0  0  0  0  0  0
    0.7279   -9.7910   -1.2981 F   0  0  0  0  0  0  0  0  0  0  0  0
   -2.0832   -9.1479   -2.0480 C   0  0  0  0  0  0  0  0  0  0  0  0
   -3.3146   -9.6225   -2.7550 C   0  0  0  0  0  0  0  0  0  0  0  0
   -4.5485   -9.8448   -1.9505 C   0  0  0  0  0  0  0  0  0  0  0  0
   -4.3246  -11.0909   -1.2934 F   0  0  0  0  0  0  0  0  0  0  0  0
   -4.7013   -8.9797   -0.8758 F   0  0  0  0  0  0  0  0  0  0  0  0
   -5.6679  -10.0146   -2.6989 F   0  0  0  0  0  0  0  0  0  0  0  0
   -3.0929  -10.7953   -3.4673 F   0  0  0  0  0  0  0  0  0  0  0  0
   -3.6878   -8.6970   -3.7574 F   0  0  0  0  0  0  0  0  0  0  0  0
   -1.9779  -10.0591   -0.9677 F   0  0  0  0  0  0  0  0  0  0  0  0
   -2.4288   -7.8921   -1.5316 F   0  0  0  0  0  0  0  0  0  0  0  0
   -0.6990  -10.4149   -3.3895 F   0  0  0  0  0  0  0  0  0  0  0  0
   -1.0081   -8.2803   -3.9346 F   0  0  0  0  0  0  0  0  0  0  0  0
  1  2  1  0
  2  3  1  0
  3  4  1  0
  4  5  1  0
  5  6  1  0
  5  7  1  0
  5  8  1  0
  8  9  2  0
  8 10  2  0
  8 11  1  0
  4 12  1  0
  4 13  1  0
  3 14  1  0
  3 15  1  0
  2 16  1  0
  2 17  1  0
  1 18  1  0
 18 19  1  0
 19 20  1  0
 20 21  1  0
 20 22  1  0
 20 23  1  0
 19 24  1  0
 19 25  1  0
 18 26  1  0
 18 27  1  0
  1 28  1  0
  1 29  1  0
M  END
$$$$
