
     RDKit          3D

 29 28  0  0  0  0  0  0  0  0999 V2000
   -3.2227    2.7870   -6.8004 C   0  0  0  0  0  0  0  0  0  0  0  0
   -2.7360    2.5131   -8.1922 C   0  0  0  0  0  0  0  0  0  0  0  0
   -3.1776    3.3795   -9.2909 C   0  0  0  0  0  0  0  0  0  0  0  0
   -2.6428    3.0433  -10.6285 C   0  0  0  0  0  0  0  0  0  0  0  0
   -3.0961    3.7342  -11.8354 C   0  0  0  0  0  0  0  0  0  0  0  0
   -3.1685    5.0952  -11.4522 F   0  0  0  0  0  0  0  0  0  0  0  0
   -4.4089    3.4954  -12.2231 F   0  0  0  0  0  0  0  0  0  0  0  0
   -1.9640    3.7533  -13.1821 S   0  0  0  0  0  0  0  0  0  0  0  0
   -1.8231    2.3281  -13.6866 O   0  0  0  0  0  0  0  0  0  0  0  0
   -0.5970    4.2209  -12.8425 O   0  0  0  0  0  0  0  0  0  0  0  0
   -2.6644    4.6716  -14.4085 O   0  0  0  0  0  0  0  0  0  0  0  0
   -2.8724    1.6752  -10.8324 F   0  0  0  0  0  0  0  0  0  0  0  0
   -1.2593    3.1484  -10.5539 F   0  0  0  0  0  0  0  0  0  0  0  0
   -3.0640    4.7319   -8.9667 F   0  0  0  0  0  0  0  0  0  0  0  0
   -4.5668    3.2301   -9.4924 F   0  0  0  0  0  0  0  0  0  0  0  0
   -1.3421    2.6428   -8.0426 F   0  0  0  0  0  0  0  0  0  0  0  0
   -3.0256    1.1969   -8.4966 F   0  0  0  0  0  0  0  0  0  0  0  0
   -2.8290    1.9075   -5.7146 C   0  0  0  0  0  0  0  0  0  0  0  0
   -3.3152    2.3094   -4.3569 C   0  0  0  0  0  0  0  0  0  0  0  0
   -3.0817    1.3764   -3.2192 C   0  0  0  0  0  0  0  0  0  0  0  0
   -1.6624    1.2584   -3.1418 F   0  0  0  0  0  0  0  0  0  0  0  0
   -3.3924    1.8982   -1.9710 F   0  0  0  0  0  0  0  0  0  0  0  0
   -3.5484    0.1205   -3.4353 F   0  0  0  0  0  0  0  0  0  0  0  0
   -4.6733    2.6048   -4.3508 F   0  0  0  0  0  0  0  0  0  0  0  0
   -2.7139    3.5284   -3.9655 F   0  0  0  0  0  0  0  0  0  0  0  0
   -3.3716    0.6067   -5.8633 F   0  0  0  0  0  0  0  0  0  0  0  0
   -1.4395    1.7910   -5.5771 F   0  0  0  0  0  0  0  0  0  0  0  0
   -4.6301    2.7283   -6.8992 F   0  0  0  0  0  0  0  0  0  0  0  0
   -2.9184    4.0991   -6.5248 F   0  0  0  0  0  0  0  0  0  0  0  0
  1  2  1  0
  2  3  1  0
  3  4  1  0
  4  5  1  0
  5  6  1  0
  5  7  1  0
  5  8  1  0
  8  9  2  0
  8 10  2  0
  8 11  1  0
  4 12  1  0
  4 13  1  0
  3 14  1  0
  3 15  1  0
  2 16  1  0
  2 17  1  0
  1 18  1  0
 18 19  1  0
 19 20  1  0
 20 21  1  0
 20 22  1  0
 20 23  1  0
 19 24  1  0
 19 25  1  0
 18 26  1  0
 18 27  1  0
  1 28  1  0
  1 29  1  0
M  END
$$$$
