
     RDKit          3D

 32 35  0  0  0  0  0  0  0  0999 V2000
    6.5006  -44.3881   -2.9711 C   0  0  0  0  0  0  0  0  0  0  0  0
    6.3907  -45.0427   -1.5973 C   0  0  0  0  0  0  0  0  0  0  0  0
    7.5445  -45.9007   -1.2745 C   0  0  0  0  0  0  0  0  0  0  0  0
    7.2212  -47.3417   -1.5500 C   0  0  0  0  0  0  0  0  0  0  0  0
    8.3940  -48.2593   -1.3808 C   0  0  0  0  0  0  0  0  0  0  0  0
    9.2296  -48.2538   -2.6639 C   0  0  0  0  0  0  0  0  0  0  0  0
   10.3793  -49.1796   -2.5397 C   0  0  0  0  0  0  0  0  0  0  0  0
   10.7556  -49.9551   -3.4570 O   0  0  0  0  0  0  0  0  0  0  0  0
   11.0987  -49.1665   -1.2609 C   0  0  0  0  0  0  0  0  0  0  0  0
   10.5202  -48.6609   -0.2068 C   0  0  0  0  0  0  0  0  0  0  0  0
    9.1780  -48.0778   -0.1416 C   0  0  0  0  0  0  0  0  0  0  0  0
    9.2512  -46.6808    0.3761 C   0  0  0  0  0  0  0  0  0  0  0  0
   10.2208  -46.3041    1.1216 O   0  0  0  0  0  0  0  0  0  0  0  0
    8.1914  -45.7041    0.0310 C   0  0  0  0  0  0  0  0  0  0  0  0
    7.8743  -44.7604    0.8989 C   0  0  0  0  0  0  0  0  0  0  0  0
    6.7991  -43.8297    0.5723 C   0  0  0  0  0  0  0  0  0  0  0  0
    6.1286  -43.9528   -0.6267 C   0  0  0  0  0  0  0  0  0  0  0  0
    5.1487  -43.0252   -0.8997 C   0  0  0  0  0  0  0  0  0  0  0  0
    4.8754  -42.0201    0.0236 C   0  0  0  0  0  0  0  0  0  0  0  0
    5.5543  -41.9106    1.2202 C   0  0  0  0  0  0  0  0  0  0  0  0
    6.5349  -42.8382    1.4929 C   0  0  0  0  0  0  0  0  0  0  0  0
    7.2231  -42.7313    2.7001 O   0  0  0  0  0  0  0  0  0  0  0  0
    8.5784  -44.6761    2.1110 O   0  0  0  0  0  0  0  0  0  0  0  0
    8.4969  -48.7907    0.8761 O   0  0  0  0  0  0  0  0  0  0  0  0
   11.2657  -48.6793    0.9890 O   0  0  0  0  0  0  0  0  0  0  0  0
   12.4608  -49.7344   -1.2308 C   0  0  0  0  0  0  0  0  0  0  0  0
   13.1880  -49.6448   -0.2062 O   0  0  0  0  0  0  0  0  0  0  0  0
   12.9420  -50.3964   -2.4051 N   0  0  0  0  0  0  0  0  0  0  0  0
    8.3754  -48.8083   -3.7101 N   0  0  0  0  0  0  0  0  0  0  0  0
    7.2771  -47.9104   -4.0341 C   0  0  0  0  0  0  0  0  0  0  0  0
    7.7935  -50.0662   -3.3265 C   0  0  0  0  0  0  0  0  0  0  0  0
    6.1934  -47.7959   -0.7258 O   0  0  0  0  0  0  0  0  0  0  0  0
  1  2  1  0
  2  3  1  0
  3  4  1  0
  4  5  1  0
  5  6  1  0
  6  7  1  0
  7  8  2  0
  7  9  1  0
  9 10  2  0
 10 11  1  0
 11 12  1  0
 12 13  2  0
 12 14  1  0
 14 15  2  0
 15 16  1  0
 16 17  1  0
 17 18  2  0
 18 19  1  0
 19 20  2  0
 20 21  1  0
 21 22  1  0
 15 23  1  0
 11 24  1  0
 10 25  1  0
  9 26  1  0
 26 27  2  0
 26 28  1  0
  6 29  1  0
 29 30  1  0
 29 31  1  0
  4 32  1  0
 17  2  1  0
 14  3  1  0
 11  5  1  0
 21 16  2  0
M  END
$$$$
