
     RDKit          3D

 32 35  0  0  0  0  0  0  0  0999 V2000
   22.8611  -48.3522   -0.2461 C   0  0  0  0  0  0  0  0  0  0  0  0
   24.2303  -48.2560   -0.9125 C   0  0  0  0  0  0  0  0  0  0  0  0
   25.3062  -48.8607   -0.1070 C   0  0  0  0  0  0  0  0  0  0  0  0
   26.0447  -47.8027    0.6623 C   0  0  0  0  0  0  0  0  0  0  0  0
   27.0611  -48.3569    1.6141 C   0  0  0  0  0  0  0  0  0  0  0  0
   26.3676  -48.7519    2.9208 C   0  0  0  0  0  0  0  0  0  0  0  0
   27.3537  -49.2722    3.8962 C   0  0  0  0  0  0  0  0  0  0  0  0
   27.3490  -48.9790    5.1202 O   0  0  0  0  0  0  0  0  0  0  0  0
   28.3813  -50.1790    3.3720 C   0  0  0  0  0  0  0  0  0  0  0  0
   28.6213  -50.2006    2.0900 C   0  0  0  0  0  0  0  0  0  0  0  0
   27.9593  -49.3927    1.0630 C   0  0  0  0  0  0  0  0  0  0  0  0
   27.3607  -50.2778    0.0222 C   0  0  0  0  0  0  0  0  0  0  0  0
   27.8274  -51.4495   -0.1945 O   0  0  0  0  0  0  0  0  0  0  0  0
   26.2084  -49.8057   -0.7812 C   0  0  0  0  0  0  0  0  0  0  0  0
   26.0759  -50.2211   -2.0280 C   0  0  0  0  0  0  0  0  0  0  0  0
   24.9648  -49.7173   -2.8283 C   0  0  0  0  0  0  0  0  0  0  0  0
   24.0791  -48.8148   -2.2776 C   0  0  0  0  0  0  0  0  0  0  0  0
   23.0282  -48.4015   -3.0649 C   0  0  0  0  0  0  0  0  0  0  0  0
   22.9009  -48.8972   -4.3594 C   0  0  0  0  0  0  0  0  0  0  0  0
   23.7962  -49.7993   -4.8972 C   0  0  0  0  0  0  0  0  0  0  0  0
   24.8471  -50.2131   -4.1092 C   0  0  0  0  0  0  0  0  0  0  0  0
   25.7536  -51.1241   -4.6483 O   0  0  0  0  0  0  0  0  0  0  0  0
   27.0051  -51.1350   -2.5507 O   0  0  0  0  0  0  0  0  0  0  0  0
   28.9968  -48.7081    0.3827 O   0  0  0  0  0  0  0  0  0  0  0  0
   29.6200  -51.0937    1.6525 O   0  0  0  0  0  0  0  0  0  0  0  0
   29.1025  -51.0336    4.3354 C   0  0  0  0  0  0  0  0  0  0  0  0
   28.7043  -51.1662    5.5230 O   0  0  0  0  0  0  0  0  0  0  0  0
   30.2773  -51.7156    3.8847 N   0  0  0  0  0  0  0  0  0  0  0  0
   25.8444  -47.5158    3.4954 N   0  0  0  0  0  0  0  0  0  0  0  0
   26.9032  -46.7129    4.0885 C   0  0  0  0  0  0  0  0  0  0  0  0
   24.8742  -47.7645    4.5274 C   0  0  0  0  0  0  0  0  0  0  0  0
   26.6923  -46.9142   -0.1939 O   0  0  0  0  0  0  0  0  0  0  0  0
  1  2  1  0
  2  3  1  0
  3  4  1  0
  4  5  1  0
  5  6  1  0
  6  7  1  0
  7  8  2  0
  7  9  1  0
  9 10  2  0
 10 11  1  0
 11 12  1  0
 12 13  2  0
 12 14  1  0
 14 15  2  0
 15 16  1  0
 16 17  1  0
 17 18  2  0
 18 19  1  0
 19 20  2  0
 20 21  1  0
 21 22  1  0
 15 23  1  0
 11 24  1  0
 10 25  1  0
  9 26  1  0
 26 27  2  0
 26 28  1  0
  6 29  1  0
 29 30  1  0
 29 31  1  0
  4 32  1  0
 17  2  1  0
 14  3  1  0
 11  5  1  0
 21 16  2  0
M  END
$$$$
