
     RDKit          3D

 32 35  0  0  0  0  0  0  0  0999 V2000
   12.2688  -50.3841   34.2220 C   0  0  0  0  0  0  0  0  0  0  0  0
   11.1479  -49.8511   33.3197 C   0  0  0  0  0  0  0  0  0  0  0  0
   11.1507  -50.4677   31.9869 C   0  0  0  0  0  0  0  0  0  0  0  0
   10.0472  -51.4840   31.7394 C   0  0  0  0  0  0  0  0  0  0  0  0
   10.2108  -52.2480   30.4751 C   0  0  0  0  0  0  0  0  0  0  0  0
   10.5369  -53.6951   30.8304 C   0  0  0  0  0  0  0  0  0  0  0  0
   11.5919  -54.2853   29.9897 C   0  0  0  0  0  0  0  0  0  0  0  0
   11.6013  -55.4836   29.5955 O   0  0  0  0  0  0  0  0  0  0  0  0
   12.7022  -53.4347   29.5827 C   0  0  0  0  0  0  0  0  0  0  0  0
   12.4425  -52.1666   29.3126 C   0  0  0  0  0  0  0  0  0  0  0  0
   11.0730  -51.6592   29.4255 C   0  0  0  0  0  0  0  0  0  0  0  0
   11.2080  -50.1604   29.5122 C   0  0  0  0  0  0  0  0  0  0  0  0
   11.2714  -49.4344   28.4937 O   0  0  0  0  0  0  0  0  0  0  0  0
   11.2660  -49.5458   30.8631 C   0  0  0  0  0  0  0  0  0  0  0  0
   11.4021  -48.2485   30.8945 C   0  0  0  0  0  0  0  0  0  0  0  0
   11.4462  -47.5992   32.1953 C   0  0  0  0  0  0  0  0  0  0  0  0
   11.3381  -48.3961   33.3007 C   0  0  0  0  0  0  0  0  0  0  0  0
   11.4007  -47.7485   34.5392 C   0  0  0  0  0  0  0  0  0  0  0  0
   11.5644  -46.3640   34.6104 C   0  0  0  0  0  0  0  0  0  0  0  0
   11.6669  -45.6131   33.4649 C   0  0  0  0  0  0  0  0  0  0  0  0
   11.6054  -46.2512   32.2630 C   0  0  0  0  0  0  0  0  0  0  0  0
   11.7125  -45.4625   31.1128 O   0  0  0  0  0  0  0  0  0  0  0  0
   11.5072  -47.4535   29.7573 O   0  0  0  0  0  0  0  0  0  0  0  0
   10.4884  -51.8612   28.1480 O   0  0  0  0  0  0  0  0  0  0  0  0
   13.5230  -51.3521   28.9214 O   0  0  0  0  0  0  0  0  0  0  0  0
   14.0750  -53.9601   29.4650 C   0  0  0  0  0  0  0  0  0  0  0  0
   14.3149  -55.0845   29.9729 O   0  0  0  0  0  0  0  0  0  0  0  0
   15.0870  -53.2308   28.8068 N   0  0  0  0  0  0  0  0  0  0  0  0
    9.3496  -54.5231   30.9279 N   0  0  0  0  0  0  0  0  0  0  0  0
    8.3050  -53.8882   30.1273 C   0  0  0  0  0  0  0  0  0  0  0  0
    8.9347  -54.6110   32.3212 C   0  0  0  0  0  0  0  0  0  0  0  0
    9.9016  -50.0700   33.9752 O   0  0  0  0  0  0  0  0  0  0  0  0
  1  2  1  0
  2  3  1  0
  3  4  1  0
  4  5  1  0
  5  6  1  0
  6  7  1  0
  7  8  2  0
  7  9  1  0
  9 10  2  0
 10 11  1  0
 11 12  1  0
 12 13  2  0
 12 14  1  0
 14 15  2  0
 15 16  1  0
 16 17  1  0
 17 18  2  0
 18 19  1  0
 19 20  2  0
 20 21  1  0
 21 22  1  0
 15 23  1  0
 11 24  1  0
 10 25  1  0
  9 26  1  0
 26 27  2  0
 26 28  1  0
  6 29  1  0
 29 30  1  0
 29 31  1  0
  2 32  1  0
 17  2  1  0
 14  3  1  0
 11  5  1  0
 21 16  2  0
M  END
$$$$
