
     RDKit          3D

 32 35  0  0  0  0  0  0  0  0999 V2000
   17.6088  -47.5298   14.9541 C   0  0  0  0  0  0  0  0  0  0  0  0
   18.4578  -46.8504   13.8714 C   0  0  0  0  0  0  0  0  0  0  0  0
   18.7464  -45.4432   14.1766 C   0  0  0  0  0  0  0  0  0  0  0  0
   20.1703  -45.1551   14.6255 C   0  0  0  0  0  0  0  0  0  0  0  0
   20.3673  -43.7741   15.1384 C   0  0  0  0  0  0  0  0  0  0  0  0
   20.6290  -43.8549   16.6390 C   0  0  0  0  0  0  0  0  0  0  0  0
   19.9244  -42.8220   17.4167 C   0  0  0  0  0  0  0  0  0  0  0  0
   20.4045  -42.2413   18.4286 O   0  0  0  0  0  0  0  0  0  0  0  0
   18.5831  -42.4407   16.9958 C   0  0  0  0  0  0  0  0  0  0  0  0
   18.3285  -42.4075   15.6986 C   0  0  0  0  0  0  0  0  0  0  0  0
   19.3799  -42.7467   14.7369 C   0  0  0  0  0  0  0  0  0  0  0  0
   18.6592  -43.0585   13.4502 C   0  0  0  0  0  0  0  0  0  0  0  0
   18.3493  -42.1693   12.6246 O   0  0  0  0  0  0  0  0  0  0  0  0
   18.3150  -44.4767   13.1736 C   0  0  0  0  0  0  0  0  0  0  0  0
   17.6750  -44.7017   12.0591 C   0  0  0  0  0  0  0  0  0  0  0  0
   17.3315  -46.0777   11.7364 C   0  0  0  0  0  0  0  0  0  0  0  0
   17.7075  -47.0455   12.6255 C   0  0  0  0  0  0  0  0  0  0  0  0
   17.3499  -48.3582   12.2995 C   0  0  0  0  0  0  0  0  0  0  0  0
   16.6487  -48.6334   11.1242 C   0  0  0  0  0  0  0  0  0  0  0  0
   16.2974  -47.6194   10.2669 C   0  0  0  0  0  0  0  0  0  0  0  0
   16.6490  -46.3440   10.5916 C   0  0  0  0  0  0  0  0  0  0  0  0
   16.2788  -45.3310    9.7011 O   0  0  0  0  0  0  0  0  0  0  0  0
   17.3036  -43.7026   11.1645 O   0  0  0  0  0  0  0  0  0  0  0  0
   20.0413  -41.5234   14.4526 O   0  0  0  0  0  0  0  0  0  0  0  0
   17.0281  -42.0391   15.3020 O   0  0  0  0  0  0  0  0  0  0  0  0
   17.5359  -42.0935   17.9742 C   0  0  0  0  0  0  0  0  0  0  0  0
   17.6140  -42.6064   19.1191 O   0  0  0  0  0  0  0  0  0  0  0  0
   16.4815  -41.2176   17.6423 N   0  0  0  0  0  0  0  0  0  0  0  0
   22.0429  -43.9445   16.9512 N   0  0  0  0  0  0  0  0  0  0  0  0
   22.2513  -45.1889   17.6883 C   0  0  0  0  0  0  0  0  0  0  0  0
   22.4310  -42.8027   17.7679 C   0  0  0  0  0  0  0  0  0  0  0  0
   19.6649  -47.5919   13.7166 O   0  0  0  0  0  0  0  0  0  0  0  0
  1  2  1  0
  2  3  1  0
  3  4  1  0
  4  5  1  0
  5  6  1  0
  6  7  1  0
  7  8  2  0
  7  9  1  0
  9 10  2  0
 10 11  1  0
 11 12  1  0
 12 13  2  0
 12 14  1  0
 14 15  2  0
 15 16  1  0
 16 17  1  0
 17 18  2  0
 18 19  1  0
 19 20  2  0
 20 21  1  0
 21 22  1  0
 15 23  1  0
 11 24  1  0
 10 25  1  0
  9 26  1  0
 26 27  2  0
 26 28  1  0
  6 29  1  0
 29 30  1  0
 29 31  1  0
  2 32  1  0
 17  2  1  0
 14  3  1  0
 11  5  1  0
 21 16  2  0
M  END
$$$$
