
     RDKit          3D

 32 35  0  0  0  0  0  0  0  0999 V2000
   11.0977  -53.8435   32.5404 C   0  0  0  0  0  0  0  0  0  0  0  0
   12.1470  -52.8215   32.0831 C   0  0  0  0  0  0  0  0  0  0  0  0
   11.5625  -51.5132   31.7618 C   0  0  0  0  0  0  0  0  0  0  0  0
   11.8183  -50.4187   32.7859 C   0  0  0  0  0  0  0  0  0  0  0  0
   11.0322  -49.1804   32.5462 C   0  0  0  0  0  0  0  0  0  0  0  0
    9.9994  -49.0472   33.6608 C   0  0  0  0  0  0  0  0  0  0  0  0
    8.6725  -48.6195   33.1870 C   0  0  0  0  0  0  0  0  0  0  0  0
    7.9082  -47.8394   33.8186 O   0  0  0  0  0  0  0  0  0  0  0  0
    8.2042  -49.1274   31.9046 C   0  0  0  0  0  0  0  0  0  0  0  0
    9.0955  -49.2889   30.9412 C   0  0  0  0  0  0  0  0  0  0  0  0
   10.5021  -48.9586   31.1818 C   0  0  0  0  0  0  0  0  0  0  0  0
   11.2712  -49.6748   30.1012 C   0  0  0  0  0  0  0  0  0  0  0  0
   11.4644  -49.1705   28.9712 O   0  0  0  0  0  0  0  0  0  0  0  0
   11.8090  -51.0244   30.4103 C   0  0  0  0  0  0  0  0  0  0  0  0
   12.4518  -51.6180   29.4424 C   0  0  0  0  0  0  0  0  0  0  0  0
   13.0121  -52.9347   29.7034 C   0  0  0  0  0  0  0  0  0  0  0  0
   12.8287  -53.4608   30.9516 C   0  0  0  0  0  0  0  0  0  0  0  0
   13.3625  -54.7352   31.1709 C   0  0  0  0  0  0  0  0  0  0  0  0
   14.0403  -55.4073   30.1522 C   0  0  0  0  0  0  0  0  0  0  0  0
   14.1949  -54.8286   28.9162 C   0  0  0  0  0  0  0  0  0  0  0  0
   13.6719  -53.5876   28.7107 C   0  0  0  0  0  0  0  0  0  0  0  0
   13.8437  -53.0219   27.4431 O   0  0  0  0  0  0  0  0  0  0  0  0
   12.6312  -51.0643   28.1784 O   0  0  0  0  0  0  0  0  0  0  0  0
   10.6356  -47.5910   30.8261 O   0  0  0  0  0  0  0  0  0  0  0  0
    8.6330  -49.7820   29.7056 O   0  0  0  0  0  0  0  0  0  0  0  0
    6.7837  -49.4484   31.6730 C   0  0  0  0  0  0  0  0  0  0  0  0
    6.0061  -49.3990   32.6593 O   0  0  0  0  0  0  0  0  0  0  0  0
    6.3091  -49.7990   30.3920 N   0  0  0  0  0  0  0  0  0  0  0  0
   10.4894  -48.2652   34.7802 N   0  0  0  0  0  0  0  0  0  0  0  0
   10.0021  -48.8979   36.0040 C   0  0  0  0  0  0  0  0  0  0  0  0
    9.9810  -46.9042   34.6784 C   0  0  0  0  0  0  0  0  0  0  0  0
   13.1298  -52.6982   33.1076 O   0  0  0  0  0  0  0  0  0  0  0  0
  1  2  1  0
  2  3  1  0
  3  4  1  0
  4  5  1  0
  5  6  1  0
  6  7  1  0
  7  8  2  0
  7  9  1  0
  9 10  2  0
 10 11  1  0
 11 12  1  0
 12 13  2  0
 12 14  1  0
 14 15  2  0
 15 16  1  0
 16 17  1  0
 17 18  2  0
 18 19  1  0
 19 20  2  0
 20 21  1  0
 21 22  1  0
 15 23  1  0
 11 24  1  0
 10 25  1  0
  9 26  1  0
 26 27  2  0
 26 28  1  0
  6 29  1  0
 29 30  1  0
 29 31  1  0
  2 32  1  0
 17  2  1  0
 14  3  1  0
 11  5  1  0
 21 16  2  0
M  END
$$$$
