
     RDKit          3D

 32 35  0  0  0  0  0  0  0  0999 V2000
    9.7163  -21.2080  -10.9148 C   0  0  0  0  0  0  0  0  0  0  0  0
    9.9394  -20.1390   -9.8367 C   0  0  0  0  0  0  0  0  0  0  0  0
    9.1925  -18.9025  -10.1006 C   0  0  0  0  0  0  0  0  0  0  0  0
    7.9746  -18.6787   -9.2183 C   0  0  0  0  0  0  0  0  0  0  0  0
    7.1199  -17.5444   -9.6558 C   0  0  0  0  0  0  0  0  0  0  0  0
    5.8015  -18.1114  -10.1725 C   0  0  0  0  0  0  0  0  0  0  0  0
    5.3219  -17.4609  -11.4034 C   0  0  0  0  0  0  0  0  0  0  0  0
    4.1090  -17.2253  -11.6582 O   0  0  0  0  0  0  0  0  0  0  0  0
    6.3081  -17.0604  -12.3978 C   0  0  0  0  0  0  0  0  0  0  0  0
    7.4725  -16.6067  -11.9655 C   0  0  0  0  0  0  0  0  0  0  0  0
    7.7360  -16.5185  -10.5274 C   0  0  0  0  0  0  0  0  0  0  0  0
    9.2353  -16.4266  -10.4007 C   0  0  0  0  0  0  0  0  0  0  0  0
    9.8463  -15.3351  -10.4638 O   0  0  0  0  0  0  0  0  0  0  0  0
    9.9930  -17.6873  -10.1945 C   0  0  0  0  0  0  0  0  0  0  0  0
   11.2893  -17.5665  -10.1090 C   0  0  0  0  0  0  0  0  0  0  0  0
   12.0730  -18.7720   -9.8895 C   0  0  0  0  0  0  0  0  0  0  0  0
   11.3942  -19.9537   -9.7840 C   0  0  0  0  0  0  0  0  0  0  0  0
   12.1728  -21.0998   -9.5903 C   0  0  0  0  0  0  0  0  0  0  0  0
   13.5637  -21.0100   -9.5125 C   0  0  0  0  0  0  0  0  0  0  0  0
   14.1923  -19.7939   -9.6250 C   0  0  0  0  0  0  0  0  0  0  0  0
   13.4271  -18.6828   -9.8138 C   0  0  0  0  0  0  0  0  0  0  0  0
   14.0929  -17.4578   -9.9250 O   0  0  0  0  0  0  0  0  0  0  0  0
   11.9625  -16.3533  -10.2156 O   0  0  0  0  0  0  0  0  0  0  0  0
    7.2957  -15.2257  -10.1408 O   0  0  0  0  0  0  0  0  0  0  0  0
    8.4198  -16.2236  -12.9349 O   0  0  0  0  0  0  0  0  0  0  0  0
    6.0270  -17.1466  -13.8428 C   0  0  0  0  0  0  0  0  0  0  0  0
    5.0956  -17.9057  -14.2117 O   0  0  0  0  0  0  0  0  0  0  0  0
    6.7738  -16.4055  -14.7821 N   0  0  0  0  0  0  0  0  0  0  0  0
    4.7900  -18.1960   -9.1359 N   0  0  0  0  0  0  0  0  0  0  0  0
    4.4469  -16.8303   -8.7453 C   0  0  0  0  0  0  0  0  0  0  0  0
    5.3258  -18.9277   -7.9963 C   0  0  0  0  0  0  0  0  0  0  0  0
    9.5735  -20.6910   -8.5748 O   0  0  0  0  0  0  0  0  0  0  0  0
  1  2  1  0
  2  3  1  0
  3  4  1  0
  4  5  1  0
  5  6  1  0
  6  7  1  0
  7  8  2  0
  7  9  1  0
  9 10  2  0
 10 11  1  0
 11 12  1  0
 12 13  2  0
 12 14  1  0
 14 15  2  0
 15 16  1  0
 16 17  1  0
 17 18  2  0
 18 19  1  0
 19 20  2  0
 20 21  1  0
 21 22  1  0
 15 23  1  0
 11 24  1  0
 10 25  1  0
  9 26  1  0
 26 27  2  0
 26 28  1  0
  6 29  1  0
 29 30  1  0
 29 31  1  0
  2 32  1  0
 17  2  1  0
 14  3  1  0
 11  5  1  0
 21 16  2  0
M  END
$$$$
