
     RDKit          3D

 41 44  0  0  0  0  0  0  0  0999 V2000
   -2.2614  -37.0663   -2.5445 C   0  0  0  0  0  0  0  0  0  0  0  0
   -1.9914  -35.7355   -1.8901 C   0  0  0  0  0  0  0  0  0  0  0  0
   -0.5971  -35.2292   -1.9554 C   0  0  0  0  0  0  0  0  0  0  0  0
   -2.6794  -35.5823   -0.5857 C   0  0  0  0  0  0  0  0  0  0  0  0
   -3.3397  -34.4745   -0.0953 C   0  0  0  0  0  0  0  0  0  0  0  0
   -3.8039  -34.8910    1.1634 C   0  0  0  0  0  0  0  0  0  0  0  0
   -3.4378  -36.1865    1.4131 C   0  0  0  0  0  0  0  0  0  0  0  0
   -2.7543  -36.5918    0.3377 N   0  0  0  0  0  0  0  0  0  0  0  0
   -2.2037  -37.9359    0.2295 C   0  0  0  0  0  0  0  0  0  0  0  0
   -3.2266  -39.0097    0.3114 C   0  0  0  0  0  0  0  0  0  0  0  0
   -2.4558  -40.3435    0.3174 C   0  0  0  0  0  0  0  0  0  0  0  0
   -3.3460  -41.4812   -0.0000 C   0  0  0  0  0  0  0  0  0  0  0  0
   -2.7095  -42.8058    0.2491 C   0  0  0  0  0  0  0  0  0  0  0  0
   -3.6061  -43.8239    0.8578 C   0  0  0  0  0  0  0  0  0  0  0  0
   -3.0007  -45.1781    0.5396 C   0  0  0  0  0  0  0  0  0  0  0  0
   -1.9138  -45.1818   -0.1337 O   0  0  0  0  0  0  0  0  0  0  0  0
   -3.6033  -46.3523    0.9624 O   0  0  0  0  0  0  0  0  0  0  0  0
   -1.4986  -42.6842    0.9500 O   0  0  0  0  0  0  0  0  0  0  0  0
   -1.4018  -40.2383   -0.6126 O   0  0  0  0  0  0  0  0  0  0  0  0
   -3.7887  -36.9044    2.6359 C   0  0  0  0  0  0  0  0  0  0  0  0
   -5.1472  -36.9351    2.9476 C   0  0  0  0  0  0  0  0  0  0  0  0
   -5.6220  -37.5644    4.0756 C   0  0  0  0  0  0  0  0  0  0  0  0
   -4.7081  -38.1772    4.9087 C   0  0  0  0  0  0  0  0  0  0  0  0
   -3.3613  -38.1517    4.6078 C   0  0  0  0  0  0  0  0  0  0  0  0
   -2.8781  -37.5115    3.4612 C   0  0  0  0  0  0  0  0  0  0  0  0
   -5.2074  -38.7871    6.0111 F   0  0  0  0  0  0  0  0  0  0  0  0
   -4.5888  -34.1049    2.1318 C   0  0  0  0  0  0  0  0  0  0  0  0
   -3.9838  -33.5576    3.2503 C   0  0  0  0  0  0  0  0  0  0  0  0
   -4.7376  -32.8095    4.1562 C   0  0  0  0  0  0  0  0  0  0  0  0
   -6.0892  -32.6148    3.9367 C   0  0  0  0  0  0  0  0  0  0  0  0
   -6.6685  -33.1704    2.8148 C   0  0  0  0  0  0  0  0  0  0  0  0
   -5.9424  -33.9162    1.9017 C   0  0  0  0  0  0  0  0  0  0  0  0
   -3.6003  -33.1645   -0.6084 C   0  0  0  0  0  0  0  0  0  0  0  0
   -3.7259  -33.0812   -1.8914 O   0  0  0  0  0  0  0  0  0  0  0  0
   -3.7393  -31.9446    0.0643 N   0  0  0  0  0  0  0  0  0  0  0  0
   -4.2444  -30.7248   -0.4496 C   0  0  0  0  0  0  0  0  0  0  0  0
   -3.9928  -30.4374   -1.8060 C   0  0  0  0  0  0  0  0  0  0  0  0
   -4.4348  -29.2765   -2.3956 C   0  0  0  0  0  0  0  0  0  0  0  0
   -5.1401  -28.3387   -1.7043 C   0  0  0  0  0  0  0  0  0  0  0  0
   -5.4060  -28.5894   -0.3665 C   0  0  0  0  0  0  0  0  0  0  0  0
   -4.9459  -29.7844    0.2250 C   0  0  0  0  0  0  0  0  0  0  0  0
  1  2  1  0
  2  3  1  0
  2  4  1  0
  4  5  2  0
  5  6  1  0
  6  7  2  0
  7  8  1  0
  8  9  1  0
  9 10  1  0
 10 11  1  0
 11 12  1  0
 12 13  1  0
 13 14  1  0
 14 15  1  0
 15 16  2  0
 15 17  1  0
 13 18  1  0
 11 19  1  0
  7 20  1  0
 20 21  1  0
 21 22  2  0
 22 23  1  0
 23 24  2  0
 24 25  1  0
 23 26  1  0
  6 27  1  0
 27 28  2  0
 28 29  1  0
 29 30  2  0
 30 31  1  0
 31 32  2  0
  5 33  1  0
 33 34  2  0
 33 35  1  0
 35 36  1  0
 36 37  2  0
 37 38  1  0
 38 39  2  0
 39 40  1  0
 40 41  2  0
  8  4  1  0
 25 20  2  0
 32 27  1  0
 41 36  1  0
M  END
$$$$
