
     RDKit          3D

 41 44  0  0  0  0  0  0  0  0999 V2000
   28.3437  -65.5333   32.7124 C   0  0  0  0  0  0  0  0  0  0  0  0
   27.7406  -65.4007   34.0875 C   0  0  0  0  0  0  0  0  0  0  0  0
   28.5570  -64.6999   35.1107 C   0  0  0  0  0  0  0  0  0  0  0  0
   27.0503  -66.6332   34.5374 C   0  0  0  0  0  0  0  0  0  0  0  0
   25.7328  -66.7810   34.9200 C   0  0  0  0  0  0  0  0  0  0  0  0
   25.6249  -68.1470   35.2293 C   0  0  0  0  0  0  0  0  0  0  0  0
   26.8216  -68.7850   35.0406 C   0  0  0  0  0  0  0  0  0  0  0  0
   27.6779  -67.8485   34.6191 N   0  0  0  0  0  0  0  0  0  0  0  0
   29.0662  -68.1532   34.3014 C   0  0  0  0  0  0  0  0  0  0  0  0
   30.0156  -67.8284   35.3966 C   0  0  0  0  0  0  0  0  0  0  0  0
   31.3278  -68.5645   35.0657 C   0  0  0  0  0  0  0  0  0  0  0  0
   32.1026  -67.8450   34.0316 C   0  0  0  0  0  0  0  0  0  0  0  0
   33.3134  -68.5918   33.5863 C   0  0  0  0  0  0  0  0  0  0  0  0
   34.1418  -67.8884   32.5714 C   0  0  0  0  0  0  0  0  0  0  0  0
   33.4018  -68.0071   31.2524 C   0  0  0  0  0  0  0  0  0  0  0  0
   32.2947  -68.6465   31.2659 O   0  0  0  0  0  0  0  0  0  0  0  0
   33.9084  -67.4461   30.0908 O   0  0  0  0  0  0  0  0  0  0  0  0
   33.0074  -69.9060   33.1970 O   0  0  0  0  0  0  0  0  0  0  0  0
   32.0626  -68.6975   36.2612 O   0  0  0  0  0  0  0  0  0  0  0  0
   27.0197  -70.2148   35.2649 C   0  0  0  0  0  0  0  0  0  0  0  0
   26.1891  -71.0604   34.5309 C   0  0  0  0  0  0  0  0  0  0  0  0
   26.2553  -72.4298   34.6497 C   0  0  0  0  0  0  0  0  0  0  0  0
   27.1791  -72.9601   35.5273 C   0  0  0  0  0  0  0  0  0  0  0  0
   28.0053  -72.1303   36.2580 C   0  0  0  0  0  0  0  0  0  0  0  0
   27.9380  -70.7378   36.1379 C   0  0  0  0  0  0  0  0  0  0  0  0
   27.2186  -74.3114   35.6217 F   0  0  0  0  0  0  0  0  0  0  0  0
   24.4243  -68.8674   35.6891 C   0  0  0  0  0  0  0  0  0  0  0  0
   24.3457  -69.3517   36.9837 C   0  0  0  0  0  0  0  0  0  0  0  0
   23.1999  -70.0265   37.4084 C   0  0  0  0  0  0  0  0  0  0  0  0
   22.1427  -70.2116   36.5360 C   0  0  0  0  0  0  0  0  0  0  0  0
   22.2455  -69.7195   35.2514 C   0  0  0  0  0  0  0  0  0  0  0  0
   23.3710  -69.0469   34.8064 C   0  0  0  0  0  0  0  0  0  0  0  0
   24.6195  -65.8875   35.0168 C   0  0  0  0  0  0  0  0  0  0  0  0
   24.6554  -64.8622   34.2316 O   0  0  0  0  0  0  0  0  0  0  0  0
   23.4866  -65.9451   35.8373 N   0  0  0  0  0  0  0  0  0  0  0  0
   22.3692  -65.0743   35.8334 C   0  0  0  0  0  0  0  0  0  0  0  0
   21.5341  -65.0838   36.9684 C   0  0  0  0  0  0  0  0  0  0  0  0
   20.4214  -64.2806   37.0571 C   0  0  0  0  0  0  0  0  0  0  0  0
   20.0626  -63.4310   36.0551 C   0  0  0  0  0  0  0  0  0  0  0  0
   20.8626  -63.3958   34.9228 C   0  0  0  0  0  0  0  0  0  0  0  0
   22.0006  -64.2256   34.8457 C   0  0  0  0  0  0  0  0  0  0  0  0
  1  2  1  0
  2  3  1  0
  2  4  1  0
  4  5  2  0
  5  6  1  0
  6  7  2  0
  7  8  1  0
  8  9  1  0
  9 10  1  0
 10 11  1  0
 11 12  1  0
 12 13  1  0
 13 14  1  0
 14 15  1  0
 15 16  2  0
 15 17  1  0
 13 18  1  0
 11 19  1  0
  7 20  1  0
 20 21  1  0
 21 22  2  0
 22 23  1  0
 23 24  2  0
 24 25  1  0
 23 26  1  0
  6 27  1  0
 27 28  2  0
 28 29  1  0
 29 30  2  0
 30 31  1  0
 31 32  2  0
  5 33  1  0
 33 34  2  0
 33 35  1  0
 35 36  1  0
 36 37  2  0
 37 38  1  0
 38 39  2  0
 39 40  1  0
 40 41  2  0
  8  4  1  0
 25 20  2  0
 32 27  1  0
 41 36  1  0
M  END
$$$$
