
     RDKit          3D

 41 44  0  0  0  0  0  0  0  0999 V2000
   10.6225  -50.8882   -1.7600 C   0  0  0  0  0  0  0  0  0  0  0  0
   10.9845  -49.8467   -0.7322 C   0  0  0  0  0  0  0  0  0  0  0  0
   12.1391  -48.9683   -1.0486 C   0  0  0  0  0  0  0  0  0  0  0  0
   10.9172  -50.3581    0.6578 C   0  0  0  0  0  0  0  0  0  0  0  0
   10.0826  -49.9483    1.6773 C   0  0  0  0  0  0  0  0  0  0  0  0
   10.4399  -50.7747    2.7556 C   0  0  0  0  0  0  0  0  0  0  0  0
   11.4410  -51.6372    2.3971 C   0  0  0  0  0  0  0  0  0  0  0  0
   11.7190  -51.3700    1.1167 N   0  0  0  0  0  0  0  0  0  0  0  0
   12.7384  -52.0998    0.3754 C   0  0  0  0  0  0  0  0  0  0  0  0
   14.1277  -51.7601    0.7762 C   0  0  0  0  0  0  0  0  0  0  0  0
   15.0467  -52.7539    0.0406 C   0  0  0  0  0  0  0  0  0  0  0  0
   16.3186  -52.9514    0.7691 C   0  0  0  0  0  0  0  0  0  0  0  0
   17.3387  -53.6887   -0.0295 C   0  0  0  0  0  0  0  0  0  0  0  0
   18.6755  -53.0401   -0.0847 C   0  0  0  0  0  0  0  0  0  0  0  0
   19.6262  -54.0602   -0.6822 C   0  0  0  0  0  0  0  0  0  0  0  0
   19.1262  -55.1865   -1.0230 O   0  0  0  0  0  0  0  0  0  0  0  0
   20.9728  -53.7775   -0.8479 O   0  0  0  0  0  0  0  0  0  0  0  0
   16.8636  -54.0252   -1.3076 O   0  0  0  0  0  0  0  0  0  0  0  0
   14.3429  -53.9663   -0.1066 O   0  0  0  0  0  0  0  0  0  0  0  0
   12.0142  -52.6310    3.3013 C   0  0  0  0  0  0  0  0  0  0  0  0
   12.8609  -52.1297    4.2888 C   0  0  0  0  0  0  0  0  0  0  0  0
   13.4815  -52.9507    5.2023 C   0  0  0  0  0  0  0  0  0  0  0  0
   13.2439  -54.3078    5.1199 C   0  0  0  0  0  0  0  0  0  0  0  0
   12.4070  -54.8128    4.1454 C   0  0  0  0  0  0  0  0  0  0  0  0
   11.7762  -53.9783    3.2161 C   0  0  0  0  0  0  0  0  0  0  0  0
   13.8703  -55.0889    6.0332 F   0  0  0  0  0  0  0  0  0  0  0  0
    9.8586  -50.7787    4.1098 C   0  0  0  0  0  0  0  0  0  0  0  0
    8.8497  -51.6670    4.4409 C   0  0  0  0  0  0  0  0  0  0  0  0
    8.3124  -51.6647    5.7292 C   0  0  0  0  0  0  0  0  0  0  0  0
    8.7877  -50.7750    6.6755 C   0  0  0  0  0  0  0  0  0  0  0  0
    9.7934  -49.9000    6.3208 C   0  0  0  0  0  0  0  0  0  0  0  0
   10.3427  -49.8828    5.0499 C   0  0  0  0  0  0  0  0  0  0  0  0
    9.0476  -48.9658    1.7805 C   0  0  0  0  0  0  0  0  0  0  0  0
    8.6890  -48.4124    0.6697 O   0  0  0  0  0  0  0  0  0  0  0  0
    8.3559  -48.5006    2.9053 N   0  0  0  0  0  0  0  0  0  0  0  0
    7.2000  -47.6819    2.9338 C   0  0  0  0  0  0  0  0  0  0  0  0
    7.3504  -46.3322    2.5576 C   0  0  0  0  0  0  0  0  0  0  0  0
    6.2904  -45.4562    2.5595 C   0  0  0  0  0  0  0  0  0  0  0  0
    5.0361  -45.8414    2.9243 C   0  0  0  0  0  0  0  0  0  0  0  0
    4.8520  -47.1635    3.3005 C   0  0  0  0  0  0  0  0  0  0  0  0
    5.9486  -48.0506    3.2940 C   0  0  0  0  0  0  0  0  0  0  0  0
  1  2  1  0
  2  3  1  0
  2  4  1  0
  4  5  2  0
  5  6  1  0
  6  7  2  0
  7  8  1  0
  8  9  1  0
  9 10  1  0
 10 11  1  0
 11 12  1  0
 12 13  1  0
 13 14  1  0
 14 15  1  0
 15 16  2  0
 15 17  1  0
 13 18  1  0
 11 19  1  0
  7 20  1  0
 20 21  1  0
 21 22  2  0
 22 23  1  0
 23 24  2  0
 24 25  1  0
 23 26  1  0
  6 27  1  0
 27 28  2  0
 28 29  1  0
 29 30  2  0
 30 31  1  0
 31 32  2  0
  5 33  1  0
 33 34  2  0
 33 35  1  0
 35 36  1  0
 36 37  2  0
 37 38  1  0
 38 39  2  0
 39 40  1  0
 40 41  2  0
  8  4  1  0
 25 20  2  0
 32 27  1  0
 41 36  1  0
M  END
$$$$
