
     RDKit          3D

 41 44  0  0  0  0  0  0  0  0999 V2000
   -2.0890  -22.8904   -4.6721 C   0  0  0  0  0  0  0  0  0  0  0  0
   -0.8434  -22.5705   -3.8858 C   0  0  0  0  0  0  0  0  0  0  0  0
    0.4099  -23.2395   -4.3172 C   0  0  0  0  0  0  0  0  0  0  0  0
   -1.0814  -22.5142   -2.4234 C   0  0  0  0  0  0  0  0  0  0  0  0
   -1.7538  -23.4242   -1.6336 C   0  0  0  0  0  0  0  0  0  0  0  0
   -1.6615  -22.8794   -0.3421 C   0  0  0  0  0  0  0  0  0  0  0  0
   -0.9670  -21.6995   -0.3597 C   0  0  0  0  0  0  0  0  0  0  0  0
   -0.6211  -21.4927   -1.6347 N   0  0  0  0  0  0  0  0  0  0  0  0
    0.1458  -20.3267   -2.0511 C   0  0  0  0  0  0  0  0  0  0  0  0
    1.5846  -20.6102   -2.2872 C   0  0  0  0  0  0  0  0  0  0  0  0
    2.2418  -19.2604   -2.6329 C   0  0  0  0  0  0  0  0  0  0  0  0
    3.5976  -19.4494   -3.1927 C   0  0  0  0  0  0  0  0  0  0  0  0
    4.4478  -18.2299   -3.0840 C   0  0  0  0  0  0  0  0  0  0  0  0
    4.0741  -17.3055   -1.9809 C   0  0  0  0  0  0  0  0  0  0  0  0
    5.0655  -16.1580   -2.0245 C   0  0  0  0  0  0  0  0  0  0  0  0
    6.0085  -16.2408   -2.8839 O   0  0  0  0  0  0  0  0  0  0  0  0
    4.9482  -15.0736   -1.1695 O   0  0  0  0  0  0  0  0  0  0  0  0
    4.5683  -17.5613   -4.3131 O   0  0  0  0  0  0  0  0  0  0  0  0
    1.3981  -18.5883   -3.5403 O   0  0  0  0  0  0  0  0  0  0  0  0
   -0.6931  -20.9048    0.8349 C   0  0  0  0  0  0  0  0  0  0  0  0
   -1.8047  -20.3123    1.4323 C   0  0  0  0  0  0  0  0  0  0  0  0
   -1.6954  -19.5259    2.5563 C   0  0  0  0  0  0  0  0  0  0  0  0
   -0.4381  -19.3319    3.0914 C   0  0  0  0  0  0  0  0  0  0  0  0
    0.6679  -19.9147    2.5065 C   0  0  0  0  0  0  0  0  0  0  0  0
    0.5573  -20.7139    1.3633 C   0  0  0  0  0  0  0  0  0  0  0  0
   -0.3643  -18.5521    4.1974 F   0  0  0  0  0  0  0  0  0  0  0  0
   -2.2023  -23.4442    0.9071 C   0  0  0  0  0  0  0  0  0  0  0  0
   -3.5691  -23.5064    1.1187 C   0  0  0  0  0  0  0  0  0  0  0  0
   -4.0682  -24.0498    2.3036 C   0  0  0  0  0  0  0  0  0  0  0  0
   -3.1975  -24.5264    3.2668 C   0  0  0  0  0  0  0  0  0  0  0  0
   -1.8401  -24.4532    3.0321 C   0  0  0  0  0  0  0  0  0  0  0  0
   -1.3205  -23.9188    1.8652 C   0  0  0  0  0  0  0  0  0  0  0  0
   -2.4168  -24.6655   -1.8915 C   0  0  0  0  0  0  0  0  0  0  0  0
   -3.1152  -24.7114   -2.9773 O   0  0  0  0  0  0  0  0  0  0  0  0
   -2.4328  -25.8503   -1.1459 N   0  0  0  0  0  0  0  0  0  0  0  0
   -3.2137  -27.0095   -1.3783 C   0  0  0  0  0  0  0  0  0  0  0  0
   -2.9342  -28.1485   -0.5971 C   0  0  0  0  0  0  0  0  0  0  0  0
   -3.6314  -29.3235   -0.7524 C   0  0  0  0  0  0  0  0  0  0  0  0
   -4.6306  -29.4545   -1.6686 C   0  0  0  0  0  0  0  0  0  0  0  0
   -4.9322  -28.3525   -2.4548 C   0  0  0  0  0  0  0  0  0  0  0  0
   -4.2084  -27.1539   -2.2845 C   0  0  0  0  0  0  0  0  0  0  0  0
  1  2  1  0
  2  3  1  0
  2  4  1  0
  4  5  2  0
  5  6  1  0
  6  7  2  0
  7  8  1  0
  8  9  1  0
  9 10  1  0
 10 11  1  0
 11 12  1  0
 12 13  1  0
 13 14  1  0
 14 15  1  0
 15 16  2  0
 15 17  1  0
 13 18  1  0
 11 19  1  0
  7 20  1  0
 20 21  1  0
 21 22  2  0
 22 23  1  0
 23 24  2  0
 24 25  1  0
 23 26  1  0
  6 27  1  0
 27 28  2  0
 28 29  1  0
 29 30  2  0
 30 31  1  0
 31 32  2  0
  5 33  1  0
 33 34  2  0
 33 35  1  0
 35 36  1  0
 36 37  2  0
 37 38  1  0
 38 39  2  0
 39 40  1  0
 40 41  2  0
  8  4  1  0
 25 20  2  0
 32 27  1  0
 41 36  1  0
M  END
$$$$
