
     RDKit          3D

 25 24  0  0  0  0  0  0  0  0999 V2000
   -3.5178    6.4972  -10.9337 C   0  0  0  0  0  0  0  0  0  0  0  0
   -4.0196    5.9359  -11.9148 O   0  0  0  0  0  0  0  0  0  0  0  0
   -3.5794    6.0852   -9.5277 C   0  0  0  0  0  0  0  0  0  0  0  0
   -2.7381    4.9646   -9.0795 C   0  0  0  0  0  0  0  0  0  0  0  0
   -1.2820    5.0381   -9.0489 C   0  0  0  0  0  0  0  0  0  0  0  0
   -0.4269    4.1176   -8.2885 C   0  0  0  0  0  0  0  0  0  0  0  0
    0.8016    3.8908   -9.2404 C   0  0  0  0  0  0  0  0  0  0  0  0
    1.5942    2.7172   -8.7630 C   0  0  0  0  0  0  0  0  0  0  0  0
    2.4074    2.2330   -9.9478 C   0  0  0  0  0  0  0  0  0  0  0  0
    2.9546    1.0229   -9.6084 F   0  0  0  0  0  0  0  0  0  0  0  0
    3.4547    3.1540  -10.0660 F   0  0  0  0  0  0  0  0  0  0  0  0
    1.6642    2.2056  -11.0948 F   0  0  0  0  0  0  0  0  0  0  0  0
    0.7566    1.6736   -8.3824 F   0  0  0  0  0  0  0  0  0  0  0  0
    2.3850    2.9960   -7.6732 F   0  0  0  0  0  0  0  0  0  0  0  0
    0.3388    3.6461  -10.4935 F   0  0  0  0  0  0  0  0  0  0  0  0
    1.5749    5.0099   -9.2413 F   0  0  0  0  0  0  0  0  0  0  0  0
   -0.8995    2.8153   -8.1762 F   0  0  0  0  0  0  0  0  0  0  0  0
    0.0184    4.6392   -7.1139 F   0  0  0  0  0  0  0  0  0  0  0  0
   -0.9631    6.3442   -8.6107 F   0  0  0  0  0  0  0  0  0  0  0  0
   -0.8076    5.0298  -10.3772 F   0  0  0  0  0  0  0  0  0  0  0  0
   -3.1317    4.7251   -7.7308 F   0  0  0  0  0  0  0  0  0  0  0  0
   -3.1911    3.7994   -9.7244 F   0  0  0  0  0  0  0  0  0  0  0  0
   -3.4010    7.1878   -8.6748 F   0  0  0  0  0  0  0  0  0  0  0  0
   -4.9428    5.7607   -9.3027 F   0  0  0  0  0  0  0  0  0  0  0  0
   -2.7960    7.6825  -11.2017 O   0  0  0  0  0  0  0  0  0  0  0  0
  1  2  2  0
  1  3  1  0
  3  4  1  0
  4  5  1  0
  5  6  1  0
  6  7  1  0
  7  8  1  0
  8  9  1  0
  9 10  1  0
  9 11  1  0
  9 12  1  0
  8 13  1  0
  8 14  1  0
  7 15  1  0
  7 16  1  0
  6 17  1  0
  6 18  1  0
  5 19  1  0
  5 20  1  0
  4 21  1  0
  4 22  1  0
  3 23  1  0
  3 24  1  0
  1 25  1  0
M  END
$$$$
