
     RDKit          3D

 25 24  0  0  0  0  0  0  0  0999 V2000
   -6.7219   10.7861  -12.1234 C   0  0  0  0  0  0  0  0  0  0  0  0
   -7.9557   10.8409  -12.1860 O   0  0  0  0  0  0  0  0  0  0  0  0
   -5.8976   10.0981  -11.1245 C   0  0  0  0  0  0  0  0  0  0  0  0
   -5.1800    8.8754  -11.5175 C   0  0  0  0  0  0  0  0  0  0  0  0
   -4.4815    8.0305  -10.5559 C   0  0  0  0  0  0  0  0  0  0  0  0
   -3.8259    6.7617  -10.8982 C   0  0  0  0  0  0  0  0  0  0  0  0
   -3.1197    6.3433   -9.5592 C   0  0  0  0  0  0  0  0  0  0  0  0
   -2.4822    5.0022   -9.7279 C   0  0  0  0  0  0  0  0  0  0  0  0
   -1.8126    4.6719   -8.4080 C   0  0  0  0  0  0  0  0  0  0  0  0
   -1.0597    3.5420   -8.5964 F   0  0  0  0  0  0  0  0  0  0  0  0
   -2.8632    4.3426   -7.5439 F   0  0  0  0  0  0  0  0  0  0  0  0
   -1.1071    5.7354   -7.9180 F   0  0  0  0  0  0  0  0  0  0  0  0
   -1.4857    5.0442  -10.6978 F   0  0  0  0  0  0  0  0  0  0  0  0
   -3.3629    4.0216  -10.1198 F   0  0  0  0  0  0  0  0  0  0  0  0
   -2.1663    7.2651   -9.2662 F   0  0  0  0  0  0  0  0  0  0  0  0
   -4.0457    6.3006   -8.5636 F   0  0  0  0  0  0  0  0  0  0  0  0
   -2.7245    6.8644  -11.7398 F   0  0  0  0  0  0  0  0  0  0  0  0
   -4.6983    5.7825  -11.2588 F   0  0  0  0  0  0  0  0  0  0  0  0
   -5.4157    7.7421   -9.5342 F   0  0  0  0  0  0  0  0  0  0  0  0
   -3.5204    8.8171   -9.8874 F   0  0  0  0  0  0  0  0  0  0  0  0
   -6.1732    8.0378  -12.1035 F   0  0  0  0  0  0  0  0  0  0  0  0
   -4.3724    9.1861  -12.6266 F   0  0  0  0  0  0  0  0  0  0  0  0
   -5.0106   10.9944  -10.5042 F   0  0  0  0  0  0  0  0  0  0  0  0
   -6.7904    9.7916  -10.0644 F   0  0  0  0  0  0  0  0  0  0  0  0
   -6.0201   11.4717  -13.1408 O   0  0  0  0  0  0  0  0  0  0  0  0
  1  2  2  0
  1  3  1  0
  3  4  1  0
  4  5  1  0
  5  6  1  0
  6  7  1  0
  7  8  1  0
  8  9  1  0
  9 10  1  0
  9 11  1  0
  9 12  1  0
  8 13  1  0
  8 14  1  0
  7 15  1  0
  7 16  1  0
  6 17  1  0
  6 18  1  0
  5 19  1  0
  5 20  1  0
  4 21  1  0
  4 22  1  0
  3 23  1  0
  3 24  1  0
  1 25  1  0
M  END
$$$$
