
     RDKit          3D

 24 26  0  0  0  0  0  0  0  0999 V2000
    5.3038  -54.8044   30.4660 C   0  0  0  0  0  0  0  0  0  0  0  0
    6.7513  -55.1829   30.4572 C   0  0  0  0  0  0  0  0  0  0  0  0
    7.1470  -56.3788   29.9266 C   0  0  0  0  0  0  0  0  0  0  0  0
    8.4604  -56.7465   29.9071 N   0  0  0  0  0  0  0  0  0  0  0  0
    9.4071  -55.9095   30.4259 C   0  0  0  0  0  0  0  0  0  0  0  0
    9.0648  -54.6879   30.9754 C   0  0  0  0  0  0  0  0  0  0  0  0
    7.7115  -54.3318   30.9845 C   0  0  0  0  0  0  0  0  0  0  0  0
    7.3173  -53.1291   31.5184 O   0  0  0  0  0  0  0  0  0  0  0  0
    7.9766  -51.9496   31.0938 C   0  0  0  0  0  0  0  0  0  0  0  0
   10.1063  -53.7984   31.5303 C   0  0  0  0  0  0  0  0  0  0  0  0
   10.8282  -56.3374   30.3899 C   0  0  0  0  0  0  0  0  0  0  0  0
   11.0339  -57.7114   29.2974 S   0  0  0  0  0  0  0  0  0  0  0  0
   12.3162  -57.6424   28.5221 O   0  0  0  0  0  0  0  0  0  0  0  0
   10.8793  -59.2685   30.1236 C   0  0  0  0  0  0  0  0  0  0  0  0
    9.7574  -60.0362   30.0263 N   0  0  0  0  0  0  0  0  0  0  0  0
    9.9400  -61.1419   30.7555 C   0  0  0  0  0  0  0  0  0  0  0  0
   11.1943  -61.0874   31.3300 C   0  0  0  0  0  0  0  0  0  0  0  0
   11.7492  -59.9107   30.9162 N   0  0  0  0  0  0  0  0  0  0  0  0
   11.6535  -62.1022   32.1403 C   0  0  0  0  0  0  0  0  0  0  0  0
   10.8762  -63.2347   32.4208 C   0  0  0  0  0  0  0  0  0  0  0  0
    9.6438  -63.2724   31.8466 C   0  0  0  0  0  0  0  0  0  0  0  0
    9.1651  -62.2518   31.0240 C   0  0  0  0  0  0  0  0  0  0  0  0
   11.4377  -64.1707   33.2350 O   0  0  0  0  0  0  0  0  0  0  0  0
   10.8444  -65.3972   33.5034 C   0  0  0  0  0  0  0  0  0  0  0  0
  1  2  1  0
  2  3  1  0
  3  4  2  0
  4  5  1  0
  5  6  2  0
  6  7  1  0
  7  8  1  0
  8  9  1  0
  6 10  1  0
  5 11  1  0
 11 12  1  0
 12 13  2  0
 12 14  1  0
 14 15  2  0
 15 16  1  0
 16 17  2  0
 17 18  1  0
 17 19  1  0
 19 20  2  0
 20 21  1  0
 21 22  2  0
 20 23  1  0
 23 24  1  0
  7  2  2  0
 18 14  1  0
 22 16  1  0
M  END
$$$$
