
     RDKit          3D

 24 26  0  0  0  0  0  0  0  0999 V2000
   24.7357  -25.1747   11.1323 C   0  0  0  0  0  0  0  0  0  0  0  0
   24.4417  -24.3942   12.3745 C   0  0  0  0  0  0  0  0  0  0  0  0
   24.9506  -23.1356   12.5334 C   0  0  0  0  0  0  0  0  0  0  0  0
   24.6971  -22.4044   13.6565 N   0  0  0  0  0  0  0  0  0  0  0  0
   23.9197  -22.9316   14.6483 C   0  0  0  0  0  0  0  0  0  0  0  0
   23.3785  -24.1994   14.5417 C   0  0  0  0  0  0  0  0  0  0  0  0
   23.6521  -24.9311   13.3807 C   0  0  0  0  0  0  0  0  0  0  0  0
   23.1389  -26.1956   13.2242 O   0  0  0  0  0  0  0  0  0  0  0  0
   21.7459  -26.3883   13.3937 C   0  0  0  0  0  0  0  0  0  0  0  0
   22.5399  -24.7490   15.6274 C   0  0  0  0  0  0  0  0  0  0  0  0
   23.6614  -22.1114   15.8585 C   0  0  0  0  0  0  0  0  0  0  0  0
   23.8279  -20.3913   15.4879 S   0  0  0  0  0  0  0  0  0  0  0  0
   23.0552  -19.5219   16.4352 O   0  0  0  0  0  0  0  0  0  0  0  0
   25.5175  -19.8747   15.3931 C   0  0  0  0  0  0  0  0  0  0  0  0
   26.1065  -19.5229   14.2154 N   0  0  0  0  0  0  0  0  0  0  0  0
   27.3756  -19.1842   14.4647 C   0  0  0  0  0  0  0  0  0  0  0  0
   27.6087  -19.3187   15.8188 C   0  0  0  0  0  0  0  0  0  0  0  0
   26.4334  -19.7492   16.3640 N   0  0  0  0  0  0  0  0  0  0  0  0
   28.8418  -19.0351   16.3631 C   0  0  0  0  0  0  0  0  0  0  0  0
   29.9158  -18.5979   15.5751 C   0  0  0  0  0  0  0  0  0  0  0  0
   29.6689  -18.4705   14.2437 C   0  0  0  0  0  0  0  0  0  0  0  0
   28.4251  -18.7545   13.6783 C   0  0  0  0  0  0  0  0  0  0  0  0
   31.0856  -18.3493   16.2264 O   0  0  0  0  0  0  0  0  0  0  0  0
   32.2504  -17.9658   15.5746 C   0  0  0  0  0  0  0  0  0  0  0  0
  1  2  1  0
  2  3  1  0
  3  4  2  0
  4  5  1  0
  5  6  2  0
  6  7  1  0
  7  8  1  0
  8  9  1  0
  6 10  1  0
  5 11  1  0
 11 12  1  0
 12 13  2  0
 12 14  1  0
 14 15  2  0
 15 16  1  0
 16 17  2  0
 17 18  1  0
 17 19  1  0
 19 20  2  0
 20 21  1  0
 21 22  2  0
 20 23  1  0
 23 24  1  0
  7  2  2  0
 18 14  1  0
 22 16  1  0
M  END
$$$$
