
     RDKit          3D

 24 26  0  0  0  0  0  0  0  0999 V2000
    8.6677  -41.9332    4.0226 C   0  0  0  0  0  0  0  0  0  0  0  0
    8.5178  -42.9447    2.9303 C   0  0  0  0  0  0  0  0  0  0  0  0
    8.2756  -42.5415    1.6470 C   0  0  0  0  0  0  0  0  0  0  0  0
    8.1349  -43.4442    0.6343 N   0  0  0  0  0  0  0  0  0  0  0  0
    8.2365  -44.7807    0.8976 C   0  0  0  0  0  0  0  0  0  0  0  0
    8.4805  -45.2460    2.1765 C   0  0  0  0  0  0  0  0  0  0  0  0
    8.6213  -44.3016    3.1995 C   0  0  0  0  0  0  0  0  0  0  0  0
    8.8648  -44.7104    4.4881 O   0  0  0  0  0  0  0  0  0  0  0  0
    7.8270  -45.3581    5.2021 C   0  0  0  0  0  0  0  0  0  0  0  0
    8.5871  -46.6966    2.4376 C   0  0  0  0  0  0  0  0  0  0  0  0
    8.0790  -45.7387   -0.2255 C   0  0  0  0  0  0  0  0  0  0  0  0
    6.8564  -45.1623   -1.3644 S   0  0  0  0  0  0  0  0  0  0  0  0
    6.4790  -46.2022   -2.3774 O   0  0  0  0  0  0  0  0  0  0  0  0
    5.4202  -44.5193   -0.5553 C   0  0  0  0  0  0  0  0  0  0  0  0
    4.4358  -45.3265   -0.0687 N   0  0  0  0  0  0  0  0  0  0  0  0
    3.4923  -44.5547    0.4806 C   0  0  0  0  0  0  0  0  0  0  0  0
    3.8721  -43.2340    0.3472 C   0  0  0  0  0  0  0  0  0  0  0  0
    5.0738  -43.2495   -0.3005 N   0  0  0  0  0  0  0  0  0  0  0  0
    3.0830  -42.2119    0.8268 C   0  0  0  0  0  0  0  0  0  0  0  0
    1.8625  -42.4588    1.4707 C   0  0  0  0  0  0  0  0  0  0  0  0
    1.5038  -43.7650    1.5940 C   0  0  0  0  0  0  0  0  0  0  0  0
    2.2927  -44.8108    1.1129 C   0  0  0  0  0  0  0  0  0  0  0  0
    1.1710  -41.3676    1.9014 O   0  0  0  0  0  0  0  0  0  0  0  0
    1.7746  -40.2856    2.5285 C   0  0  0  0  0  0  0  0  0  0  0  0
  1  2  1  0
  2  3  1  0
  3  4  2  0
  4  5  1  0
  5  6  2  0
  6  7  1  0
  7  8  1  0
  8  9  1  0
  6 10  1  0
  5 11  1  0
 11 12  1  0
 12 13  2  0
 12 14  1  0
 14 15  2  0
 15 16  1  0
 16 17  2  0
 17 18  1  0
 17 19  1  0
 19 20  2  0
 20 21  1  0
 21 22  2  0
 20 23  1  0
 23 24  1  0
  7  2  2  0
 18 14  1  0
 22 16  1  0
M  END
$$$$
