
     RDKit          3D

 24 26  0  0  0  0  0  0  0  0999 V2000
    2.3226  -41.1390    2.7106 C   0  0  0  0  0  0  0  0  0  0  0  0
    3.7509  -41.4568    2.3982 C   0  0  0  0  0  0  0  0  0  0  0  0
    4.0761  -42.0883    1.2304 C   0  0  0  0  0  0  0  0  0  0  0  0
    5.3706  -42.3889    0.9230 N   0  0  0  0  0  0  0  0  0  0  0  0
    6.3694  -42.0561    1.7933 C   0  0  0  0  0  0  0  0  0  0  0  0
    6.0993  -41.4165    2.9889 C   0  0  0  0  0  0  0  0  0  0  0  0
    4.7641  -41.1182    3.2831 C   0  0  0  0  0  0  0  0  0  0  0  0
    4.4408  -40.4833    4.4575 O   0  0  0  0  0  0  0  0  0  0  0  0
    4.7808  -39.1162    4.6057 C   0  0  0  0  0  0  0  0  0  0  0  0
    7.1963  -41.0655    3.9147 C   0  0  0  0  0  0  0  0  0  0  0  0
    7.7684  -42.3961    1.4307 C   0  0  0  0  0  0  0  0  0  0  0  0
    7.8036  -43.4170   -0.0117 S   0  0  0  0  0  0  0  0  0  0  0  0
    9.1509  -43.4340   -0.6710 O   0  0  0  0  0  0  0  0  0  0  0  0
    7.2348  -45.0625    0.3037 C   0  0  0  0  0  0  0  0  0  0  0  0
    6.1339  -45.3190    1.0652 N   0  0  0  0  0  0  0  0  0  0  0  0
    5.9602  -46.6435    1.1204 C   0  0  0  0  0  0  0  0  0  0  0  0
    6.9603  -47.2491    0.3860 C   0  0  0  0  0  0  0  0  0  0  0  0
    7.7333  -46.2374   -0.1067 N   0  0  0  0  0  0  0  0  0  0  0  0
    7.0297  -48.6197    0.2678 C   0  0  0  0  0  0  0  0  0  0  0  0
    6.0947  -49.4640    0.8827 C   0  0  0  0  0  0  0  0  0  0  0  0
    5.1162  -48.8511    1.6018 C   0  0  0  0  0  0  0  0  0  0  0  0
    5.0334  -47.4640    1.7307 C   0  0  0  0  0  0  0  0  0  0  0  0
    6.2671  -50.8015    0.6939 O   0  0  0  0  0  0  0  0  0  0  0  0
    6.3563  -51.3852   -0.5630 C   0  0  0  0  0  0  0  0  0  0  0  0
  1  2  1  0
  2  3  1  0
  3  4  2  0
  4  5  1  0
  5  6  2  0
  6  7  1  0
  7  8  1  0
  8  9  1  0
  6 10  1  0
  5 11  1  0
 11 12  1  0
 12 13  2  0
 12 14  1  0
 14 15  2  0
 15 16  1  0
 16 17  2  0
 17 18  1  0
 17 19  1  0
 19 20  2  0
 20 21  1  0
 21 22  2  0
 20 23  1  0
 23 24  1  0
  7  2  2  0
 18 14  1  0
 22 16  1  0
M  END
$$$$
