
     RDKit          3D

  4  3  0  0  0  0  0  0  0  0999 V2000
  -15.0759    0.3509   10.8270 C   0  0  0  0  0  0  0  0  0  0  0  0
  -13.6497   -0.1106   10.6434 C   0  0  0  0  0  0  0  0  0  0  0  0
  -13.6225   -1.7700   11.3399 Cl  0  0  0  0  0  0  0  0  0  0  0  0
  -15.4726    1.8276    9.9626 Cl  0  0  0  0  0  0  0  0  0  0  0  0
  1  2  1  0
  2  3  1  0
  1  4  1  0
M  END
$$$$
