
     RDKit          3D

  4  3  0  0  0  0  0  0  0  0999 V2000
    5.1615    3.1194    3.6360 C   0  0  0  0  0  0  0  0  0  0  0  0
    4.8303    4.5725    3.8803 C   0  0  0  0  0  0  0  0  0  0  0  0
    5.4654    5.4269    2.4291 Cl  0  0  0  0  0  0  0  0  0  0  0  0
    4.0951    1.9894    4.4552 Cl  0  0  0  0  0  0  0  0  0  0  0  0
  1  2  1  0
  2  3  1  0
  1  4  1  0
M  END
$$$$
