
     RDKit          3D

 29 28  0  0  0  0  0  0  0  0999 V2000
   -6.9071   -2.1526    6.1665 C   0  0  0  0  0  0  0  0  0  0  0  0
   -8.2761   -1.7826    5.7833 C   0  0  0  0  0  0  0  0  0  0  0  0
   -8.9620   -2.5889    4.7169 C   0  0  0  0  0  0  0  0  0  0  0  0
  -10.4230   -2.0736    4.7423 C   0  0  0  0  0  0  0  0  0  0  0  0
  -11.3612   -3.1168    4.2209 C   0  0  0  0  0  0  0  0  0  0  0  0
  -11.5043   -4.1911    5.0412 F   0  0  0  0  0  0  0  0  0  0  0  0
  -10.8579   -3.6166    3.0113 F   0  0  0  0  0  0  0  0  0  0  0  0
  -12.9007   -2.3423    3.8208 S   0  0  0  0  0  0  0  0  0  0  0  0
  -13.9708   -3.4165    3.6983 O   0  0  0  0  0  0  0  0  0  0  0  0
  -13.3290   -1.4809    4.9751 O   0  0  0  0  0  0  0  0  0  0  0  0
  -12.8162   -1.4398    2.4130 O   0  0  0  0  0  0  0  0  0  0  0  0
  -10.7639   -1.7849    6.0482 F   0  0  0  0  0  0  0  0  0  0  0  0
  -10.4736   -0.9027    4.0204 F   0  0  0  0  0  0  0  0  0  0  0  0
   -8.9859   -3.9549    4.9931 F   0  0  0  0  0  0  0  0  0  0  0  0
   -8.3901   -2.4101    3.4937 F   0  0  0  0  0  0  0  0  0  0  0  0
   -9.1642   -1.7418    6.8500 F   0  0  0  0  0  0  0  0  0  0  0  0
   -8.2932   -0.4600    5.2950 F   0  0  0  0  0  0  0  0  0  0  0  0
   -5.9338   -1.0666    6.4957 C   0  0  0  0  0  0  0  0  0  0  0  0
   -4.6047   -1.7630    6.8072 C   0  0  0  0  0  0  0  0  0  0  0  0
   -3.8515   -1.0409    7.8751 C   0  0  0  0  0  0  0  0  0  0  0  0
   -4.3702    0.2432    7.9889 F   0  0  0  0  0  0  0  0  0  0  0  0
   -4.0280   -1.6676    9.0976 F   0  0  0  0  0  0  0  0  0  0  0  0
   -2.5372   -0.9140    7.5333 F   0  0  0  0  0  0  0  0  0  0  0  0
   -3.9017   -1.7813    5.6212 F   0  0  0  0  0  0  0  0  0  0  0  0
   -4.8989   -3.0377    7.1914 F   0  0  0  0  0  0  0  0  0  0  0  0
   -5.6834   -0.1891    5.4747 F   0  0  0  0  0  0  0  0  0  0  0  0
   -6.3060   -0.3432    7.6395 F   0  0  0  0  0  0  0  0  0  0  0  0
   -6.3944   -2.9823    5.1513 F   0  0  0  0  0  0  0  0  0  0  0  0
   -7.0090   -2.9967    7.2784 F   0  0  0  0  0  0  0  0  0  0  0  0
  1  2  1  0
  2  3  1  0
  3  4  1  0
  4  5  1  0
  5  6  1  0
  5  7  1  0
  5  8  1  0
  8  9  2  0
  8 10  2  0
  8 11  1  0
  4 12  1  0
  4 13  1  0
  3 14  1  0
  3 15  1  0
  2 16  1  0
  2 17  1  0
  1 18  1  0
 18 19  1  0
 19 20  1  0
 20 21  1  0
 20 22  1  0
 20 23  1  0
 19 24  1  0
 19 25  1  0
 18 26  1  0
 18 27  1  0
  1 28  1  0
  1 29  1  0
M  END
$$$$
