
     RDKit          3D

 29 28  0  0  0  0  0  0  0  0999 V2000
   -0.3080    2.1714   -6.2378 C   0  0  0  0  0  0  0  0  0  0  0  0
   -0.3145    1.0414   -7.1765 C   0  0  0  0  0  0  0  0  0  0  0  0
   -1.0756    1.1866   -8.4639 C   0  0  0  0  0  0  0  0  0  0  0  0
   -1.2547   -0.2713   -8.9571 C   0  0  0  0  0  0  0  0  0  0  0  0
   -2.1208   -0.3146  -10.1771 C   0  0  0  0  0  0  0  0  0  0  0  0
   -1.6180    0.3728  -11.2364 F   0  0  0  0  0  0  0  0  0  0  0  0
   -3.3552    0.2802   -9.8792 F   0  0  0  0  0  0  0  0  0  0  0  0
   -2.4777   -2.0054  -10.5563 S   0  0  0  0  0  0  0  0  0  0  0  0
   -1.2715   -2.6145  -11.2552 O   0  0  0  0  0  0  0  0  0  0  0  0
   -2.6264   -2.7732   -9.2733 O   0  0  0  0  0  0  0  0  0  0  0  0
   -3.8475   -2.1732  -11.5045 O   0  0  0  0  0  0  0  0  0  0  0  0
   -0.0131   -0.7818   -9.2774 F   0  0  0  0  0  0  0  0  0  0  0  0
   -1.7641   -1.0130   -7.9154 F   0  0  0  0  0  0  0  0  0  0  0  0
   -0.3695    1.8848   -9.4420 F   0  0  0  0  0  0  0  0  0  0  0  0
   -2.2762    1.8035   -8.2811 F   0  0  0  0  0  0  0  0  0  0  0  0
    0.9538    0.6077   -7.5392 F   0  0  0  0  0  0  0  0  0  0  0  0
   -0.8801   -0.0909   -6.5551 F   0  0  0  0  0  0  0  0  0  0  0  0
    0.6585    2.1537   -5.0974 C   0  0  0  0  0  0  0  0  0  0  0  0
    0.5211    3.5107   -4.3988 C   0  0  0  0  0  0  0  0  0  0  0  0
    1.3683    3.5768   -3.1712 C   0  0  0  0  0  0  0  0  0  0  0  0
    1.7472    2.2850   -2.8271 F   0  0  0  0  0  0  0  0  0  0  0  0
    2.5263    4.2939   -3.4225 F   0  0  0  0  0  0  0  0  0  0  0  0
    0.6552    4.0788   -2.1224 F   0  0  0  0  0  0  0  0  0  0  0  0
   -0.8170    3.6439   -4.0936 F   0  0  0  0  0  0  0  0  0  0  0  0
    0.8883    4.4659   -5.2997 F   0  0  0  0  0  0  0  0  0  0  0  0
    0.4100    1.1998   -4.1469 F   0  0  0  0  0  0  0  0  0  0  0  0
    1.9899    2.0361   -5.5262 F   0  0  0  0  0  0  0  0  0  0  0  0
   -1.6241    2.3351   -5.7655 F   0  0  0  0  0  0  0  0  0  0  0  0
   -0.0696    3.3263   -6.9918 F   0  0  0  0  0  0  0  0  0  0  0  0
  1  2  1  0
  2  3  1  0
  3  4  1  0
  4  5  1  0
  5  6  1  0
  5  7  1  0
  5  8  1  0
  8  9  2  0
  8 10  2  0
  8 11  1  0
  4 12  1  0
  4 13  1  0
  3 14  1  0
  3 15  1  0
  2 16  1  0
  2 17  1  0
  1 18  1  0
 18 19  1  0
 19 20  1  0
 20 21  1  0
 20 22  1  0
 20 23  1  0
 19 24  1  0
 19 25  1  0
 18 26  1  0
 18 27  1  0
  1 28  1  0
  1 29  1  0
M  END
$$$$
