
     RDKit          3D

 29 28  0  0  0  0  0  0  0  0999 V2000
  -12.1139   -2.4007   -4.4738 C   0  0  0  0  0  0  0  0  0  0  0  0
  -13.1135   -1.3261   -4.5397 C   0  0  0  0  0  0  0  0  0  0  0  0
  -14.3657   -1.4642   -3.7209 C   0  0  0  0  0  0  0  0  0  0  0  0
  -15.2023   -0.2185   -4.1071 C   0  0  0  0  0  0  0  0  0  0  0  0
  -16.5526   -0.2674   -3.4630 C   0  0  0  0  0  0  0  0  0  0  0  0
  -16.5223   -0.1707   -2.1076 F   0  0  0  0  0  0  0  0  0  0  0  0
  -17.1484   -1.5038   -3.7506 F   0  0  0  0  0  0  0  0  0  0  0  0
  -17.5840    0.9542   -4.2205 S   0  0  0  0  0  0  0  0  0  0  0  0
  -18.3133    1.7229   -3.1290 O   0  0  0  0  0  0  0  0  0  0  0  0
  -16.7153    1.9673   -4.9110 O   0  0  0  0  0  0  0  0  0  0  0  0
  -18.6802    0.2881   -5.2968 O   0  0  0  0  0  0  0  0  0  0  0  0
  -14.5411    0.9089   -3.6635 F   0  0  0  0  0  0  0  0  0  0  0  0
  -15.2690   -0.1600   -5.4807 F   0  0  0  0  0  0  0  0  0  0  0  0
  -14.1311   -1.4124   -2.3480 F   0  0  0  0  0  0  0  0  0  0  0  0
  -15.0325   -2.6193   -3.9974 F   0  0  0  0  0  0  0  0  0  0  0  0
  -12.6055   -0.0698   -4.2366 F   0  0  0  0  0  0  0  0  0  0  0  0
  -13.5702   -1.1810   -5.8658 F   0  0  0  0  0  0  0  0  0  0  0  0
  -11.0074   -2.4166   -5.4789 C   0  0  0  0  0  0  0  0  0  0  0  0
  -10.1107   -3.6030   -5.1095 C   0  0  0  0  0  0  0  0  0  0  0  0
   -8.9389   -3.7040   -6.0292 C   0  0  0  0  0  0  0  0  0  0  0  0
   -9.2929   -3.1559   -7.2560 F   0  0  0  0  0  0  0  0  0  0  0  0
   -7.8752   -2.9652   -5.5382 F   0  0  0  0  0  0  0  0  0  0  0  0
   -8.6146   -5.0101   -6.2518 F   0  0  0  0  0  0  0  0  0  0  0  0
  -10.9124   -4.7218   -5.1924 F   0  0  0  0  0  0  0  0  0  0  0  0
   -9.7073   -3.4163   -3.8206 F   0  0  0  0  0  0  0  0  0  0  0  0
  -11.4078   -2.6194   -6.7727 F   0  0  0  0  0  0  0  0  0  0  0  0
  -10.2156   -1.2590   -5.4214 F   0  0  0  0  0  0  0  0  0  0  0  0
  -12.8090   -3.6248   -4.4871 F   0  0  0  0  0  0  0  0  0  0  0  0
  -11.5413   -2.3470   -3.1977 F   0  0  0  0  0  0  0  0  0  0  0  0
  1  2  1  0
  2  3  1  0
  3  4  1  0
  4  5  1  0
  5  6  1  0
  5  7  1  0
  5  8  1  0
  8  9  2  0
  8 10  2  0
  8 11  1  0
  4 12  1  0
  4 13  1  0
  3 14  1  0
  3 15  1  0
  2 16  1  0
  2 17  1  0
  1 18  1  0
 18 19  1  0
 19 20  1  0
 20 21  1  0
 20 22  1  0
 20 23  1  0
 19 24  1  0
 19 25  1  0
 18 26  1  0
 18 27  1  0
  1 28  1  0
  1 29  1  0
M  END
$$$$
