
     RDKit          3D

 29 28  0  0  0  0  0  0  0  0999 V2000
    8.7402   -8.7288    0.0225 C   0  0  0  0  0  0  0  0  0  0  0  0
    9.7414   -9.7979    0.1357 C   0  0  0  0  0  0  0  0  0  0  0  0
   10.3461  -10.3467   -1.1256 C   0  0  0  0  0  0  0  0  0  0  0  0
   11.5344  -11.2061   -0.6255 C   0  0  0  0  0  0  0  0  0  0  0  0
   12.4151  -11.6069   -1.7675 C   0  0  0  0  0  0  0  0  0  0  0  0
   13.1244  -10.5799   -2.3054 F   0  0  0  0  0  0  0  0  0  0  0  0
   11.6149  -12.1103   -2.8032 F   0  0  0  0  0  0  0  0  0  0  0  0
   13.4362  -12.9546   -1.2468 S   0  0  0  0  0  0  0  0  0  0  0  0
   14.3903  -13.3098   -2.3773 O   0  0  0  0  0  0  0  0  0  0  0  0
   14.3110  -12.4959   -0.1145 O   0  0  0  0  0  0  0  0  0  0  0  0
   12.5431  -14.2965   -0.7939 O   0  0  0  0  0  0  0  0  0  0  0  0
   12.2765  -10.4543    0.2628 F   0  0  0  0  0  0  0  0  0  0  0  0
   11.0210  -12.2861    0.0561 F   0  0  0  0  0  0  0  0  0  0  0  0
   10.8573   -9.3572   -1.9636 F   0  0  0  0  0  0  0  0  0  0  0  0
    9.4553  -11.0916   -1.8375 F   0  0  0  0  0  0  0  0  0  0  0  0
   10.8150   -9.4748    0.9549 F   0  0  0  0  0  0  0  0  0  0  0  0
    9.1713  -10.9188    0.7735 F   0  0  0  0  0  0  0  0  0  0  0  0
    8.3640   -7.9626    1.2499 C   0  0  0  0  0  0  0  0  0  0  0  0
    7.1169   -7.1514    0.8825 C   0  0  0  0  0  0  0  0  0  0  0  0
    5.9908   -7.4330    1.8216 C   0  0  0  0  0  0  0  0  0  0  0  0
    5.9472   -6.4214    2.7732 F   0  0  0  0  0  0  0  0  0  0  0  0
    4.7826   -7.4159    1.1448 F   0  0  0  0  0  0  0  0  0  0  0  0
    6.2039   -8.6032    2.4893 F   0  0  0  0  0  0  0  0  0  0  0  0
    6.7973   -7.5151   -0.4086 F   0  0  0  0  0  0  0  0  0  0  0  0
    7.4683   -5.8345    0.9196 F   0  0  0  0  0  0  0  0  0  0  0  0
    8.0224   -8.7345    2.3282 F   0  0  0  0  0  0  0  0  0  0  0  0
    9.3582   -7.0505    1.6370 F   0  0  0  0  0  0  0  0  0  0  0  0
    7.5963   -9.2843   -0.5813 F   0  0  0  0  0  0  0  0  0  0  0  0
    9.2204   -7.8197   -0.9273 F   0  0  0  0  0  0  0  0  0  0  0  0
  1  2  1  0
  2  3  1  0
  3  4  1  0
  4  5  1  0
  5  6  1  0
  5  7  1  0
  5  8  1  0
  8  9  2  0
  8 10  2  0
  8 11  1  0
  4 12  1  0
  4 13  1  0
  3 14  1  0
  3 15  1  0
  2 16  1  0
  2 17  1  0
  1 18  1  0
 18 19  1  0
 19 20  1  0
 20 21  1  0
 20 22  1  0
 20 23  1  0
 19 24  1  0
 19 25  1  0
 18 26  1  0
 18 27  1  0
  1 28  1  0
  1 29  1  0
M  END
$$$$
