
     RDKit          3D

 25 24  0  0  0  0  0  0  0  0999 V2000
   11.2865    8.6989   -3.1071 C   0  0  0  0  0  0  0  0  0  0  0  0
   11.6211    9.5462   -2.2487 O   0  0  0  0  0  0  0  0  0  0  0  0
    9.9658    8.6880   -3.7901 C   0  0  0  0  0  0  0  0  0  0  0  0
    9.0848    9.7889   -3.2530 C   0  0  0  0  0  0  0  0  0  0  0  0
    7.7075    9.7592   -3.9391 C   0  0  0  0  0  0  0  0  0  0  0  0
    6.9279   10.8558   -3.2862 C   0  0  0  0  0  0  0  0  0  0  0  0
    5.4868   10.9454   -3.5684 C   0  0  0  0  0  0  0  0  0  0  0  0
    4.5795   11.4760   -2.5225 C   0  0  0  0  0  0  0  0  0  0  0  0
    3.1693   11.5609   -3.1515 C   0  0  0  0  0  0  0  0  0  0  0  0
    2.7529   10.3357   -3.5742 F   0  0  0  0  0  0  0  0  0  0  0  0
    2.3411   12.0415   -2.1558 F   0  0  0  0  0  0  0  0  0  0  0  0
    3.2449   12.4710   -4.1979 F   0  0  0  0  0  0  0  0  0  0  0  0
    4.4580   10.7025   -1.3891 F   0  0  0  0  0  0  0  0  0  0  0  0
    4.9327   12.7514   -2.1436 F   0  0  0  0  0  0  0  0  0  0  0  0
    5.3334   11.7353   -4.7169 F   0  0  0  0  0  0  0  0  0  0  0  0
    5.0752    9.6671   -3.9922 F   0  0  0  0  0  0  0  0  0  0  0  0
    7.5112   12.0531   -3.7394 F   0  0  0  0  0  0  0  0  0  0  0  0
    7.2332   10.8109   -1.9350 F   0  0  0  0  0  0  0  0  0  0  0  0
    7.1324    8.5168   -3.6238 F   0  0  0  0  0  0  0  0  0  0  0  0
    7.7858    9.8416   -5.2920 F   0  0  0  0  0  0  0  0  0  0  0  0
    9.6956   11.0050   -3.4800 F   0  0  0  0  0  0  0  0  0  0  0  0
    8.8588    9.6626   -1.9072 F   0  0  0  0  0  0  0  0  0  0  0  0
   10.0620    8.6970   -5.1466 F   0  0  0  0  0  0  0  0  0  0  0  0
    9.3461    7.4947   -3.3918 F   0  0  0  0  0  0  0  0  0  0  0  0
   12.2067    7.7209   -3.4313 O   0  0  0  0  0  0  0  0  0  0  0  0
  1  2  2  0
  1  3  1  0
  3  4  1  0
  4  5  1  0
  5  6  1  0
  6  7  1  0
  7  8  1  0
  8  9  1  0
  9 10  1  0
  9 11  1  0
  9 12  1  0
  8 13  1  0
  8 14  1  0
  7 15  1  0
  7 16  1  0
  6 17  1  0
  6 18  1  0
  5 19  1  0
  5 20  1  0
  4 21  1  0
  4 22  1  0
  3 23  1  0
  3 24  1  0
  1 25  1  0
M  END
$$$$
