
     RDKit          3D

 25 24  0  0  0  0  0  0  0  0999 V2000
   15.9186    9.2884   -5.7945 C   0  0  0  0  0  0  0  0  0  0  0  0
   16.7732    9.4806   -4.9003 O   0  0  0  0  0  0  0  0  0  0  0  0
   14.6649   10.0769   -5.9261 C   0  0  0  0  0  0  0  0  0  0  0  0
   13.6559    9.6401   -4.8928 C   0  0  0  0  0  0  0  0  0  0  0  0
   12.2943   10.3085   -5.1537 C   0  0  0  0  0  0  0  0  0  0  0  0
   11.3913    9.7721   -4.0892 C   0  0  0  0  0  0  0  0  0  0  0  0
    9.9469   10.0222   -4.2139 C   0  0  0  0  0  0  0  0  0  0  0  0
    9.0303    9.4812   -3.1816 C   0  0  0  0  0  0  0  0  0  0  0  0
    7.6570   10.1576   -3.4007 C   0  0  0  0  0  0  0  0  0  0  0  0
    7.7379   11.4993   -3.1851 F   0  0  0  0  0  0  0  0  0  0  0  0
    7.3122    9.8936   -4.7121 F   0  0  0  0  0  0  0  0  0  0  0  0
    6.7601    9.5474   -2.5334 F   0  0  0  0  0  0  0  0  0  0  0  0
    8.8109    8.1221   -3.2311 F   0  0  0  0  0  0  0  0  0  0  0  0
    9.4465    9.8092   -1.9111 F   0  0  0  0  0  0  0  0  0  0  0  0
    9.7658   11.4116   -4.2692 F   0  0  0  0  0  0  0  0  0  0  0  0
    9.5691    9.5908   -5.5001 F   0  0  0  0  0  0  0  0  0  0  0  0
   11.8132   10.3839   -2.8946 F   0  0  0  0  0  0  0  0  0  0  0  0
   11.7171    8.4346   -3.9278 F   0  0  0  0  0  0  0  0  0  0  0  0
   11.8636    9.8565   -6.4122 F   0  0  0  0  0  0  0  0  0  0  0  0
   12.3693   11.6629   -5.2098 F   0  0  0  0  0  0  0  0  0  0  0  0
   14.1162    9.9873   -3.6395 F   0  0  0  0  0  0  0  0  0  0  0  0
   13.4425    8.2865   -4.9157 F   0  0  0  0  0  0  0  0  0  0  0  0
   14.8731   11.4207   -5.9321 F   0  0  0  0  0  0  0  0  0  0  0  0
   14.1127    9.7025   -7.1596 F   0  0  0  0  0  0  0  0  0  0  0  0
   16.1655    8.2815   -6.7076 O   0  0  0  0  0  0  0  0  0  0  0  0
  1  2  2  0
  1  3  1  0
  3  4  1  0
  4  5  1  0
  5  6  1  0
  6  7  1  0
  7  8  1  0
  8  9  1  0
  9 10  1  0
  9 11  1  0
  9 12  1  0
  8 13  1  0
  8 14  1  0
  7 15  1  0
  7 16  1  0
  6 17  1  0
  6 18  1  0
  5 19  1  0
  5 20  1  0
  4 21  1  0
  4 22  1  0
  3 23  1  0
  3 24  1  0
  1 25  1  0
M  END
$$$$
