
     RDKit          3D

 25 24  0  0  0  0  0  0  0  0999 V2000
   12.4827    6.9008   -3.0739 C   0  0  0  0  0  0  0  0  0  0  0  0
   11.3929    6.9533   -2.4604 O   0  0  0  0  0  0  0  0  0  0  0  0
   12.9604    7.9557   -4.0066 C   0  0  0  0  0  0  0  0  0  0  0  0
   11.8477    8.9246   -4.3219 C   0  0  0  0  0  0  0  0  0  0  0  0
   12.2403    9.8292   -5.5035 C   0  0  0  0  0  0  0  0  0  0  0  0
   10.9734   10.0311   -6.2720 C   0  0  0  0  0  0  0  0  0  0  0  0
   11.0556   10.6916   -7.5840 C   0  0  0  0  0  0  0  0  0  0  0  0
    9.8023   11.0735   -8.2782 C   0  0  0  0  0  0  0  0  0  0  0  0
   10.2084   11.6509   -9.6541 C   0  0  0  0  0  0  0  0  0  0  0  0
   10.9270   10.7416  -10.3681 F   0  0  0  0  0  0  0  0  0  0  0  0
    9.0251   11.9538  -10.2995 F   0  0  0  0  0  0  0  0  0  0  0  0
   10.9356   12.8089   -9.4105 F   0  0  0  0  0  0  0  0  0  0  0  0
    8.9213   10.0445   -8.5288 F   0  0  0  0  0  0  0  0  0  0  0  0
    9.1305   12.0672   -7.6028 F   0  0  0  0  0  0  0  0  0  0  0  0
   11.8314   11.8486   -7.4224 F   0  0  0  0  0  0  0  0  0  0  0  0
   11.8561    9.8717   -8.4026 F   0  0  0  0  0  0  0  0  0  0  0  0
   10.1623   10.8393   -5.4546 F   0  0  0  0  0  0  0  0  0  0  0  0
   10.3257    8.8061   -6.3004 F   0  0  0  0  0  0  0  0  0  0  0  0
   13.1534    9.0962   -6.2798 F   0  0  0  0  0  0  0  0  0  0  0  0
   12.8604   10.9726   -5.1143 F   0  0  0  0  0  0  0  0  0  0  0  0
   11.5924    9.6950   -3.2063 F   0  0  0  0  0  0  0  0  0  0  0  0
   10.6895    8.2859   -4.6810 F   0  0  0  0  0  0  0  0  0  0  0  0
   14.0983    8.5701   -3.5859 F   0  0  0  0  0  0  0  0  0  0  0  0
   13.2266    7.2965   -5.2154 F   0  0  0  0  0  0  0  0  0  0  0  0
   13.2806    5.7927   -2.8642 O   0  0  0  0  0  0  0  0  0  0  0  0
  1  2  2  0
  1  3  1  0
  3  4  1  0
  4  5  1  0
  5  6  1  0
  6  7  1  0
  7  8  1  0
  8  9  1  0
  9 10  1  0
  9 11  1  0
  9 12  1  0
  8 13  1  0
  8 14  1  0
  7 15  1  0
  7 16  1  0
  6 17  1  0
  6 18  1  0
  5 19  1  0
  5 20  1  0
  4 21  1  0
  4 22  1  0
  3 23  1  0
  3 24  1  0
  1 25  1  0
M  END
$$$$
