
     RDKit          3D

 25 24  0  0  0  0  0  0  0  0999 V2000
   12.4541   11.5740   -6.3227 C   0  0  0  0  0  0  0  0  0  0  0  0
   11.3844   11.5283   -5.6743 O   0  0  0  0  0  0  0  0  0  0  0  0
   13.5384   10.5633   -6.2052 C   0  0  0  0  0  0  0  0  0  0  0  0
   13.1716    9.5118   -5.1873 C   0  0  0  0  0  0  0  0  0  0  0  0
   14.3245    8.5076   -5.0111 C   0  0  0  0  0  0  0  0  0  0  0  0
   13.9889    7.7498   -3.7664 C   0  0  0  0  0  0  0  0  0  0  0  0
   15.0347    6.9094   -3.1627 C   0  0  0  0  0  0  0  0  0  0  0  0
   14.6780    6.0135   -2.0363 C   0  0  0  0  0  0  0  0  0  0  0  0
   15.9820    5.3127   -1.5889 C   0  0  0  0  0  0  0  0  0  0  0  0
   16.9641    6.2243   -1.3490 F   0  0  0  0  0  0  0  0  0  0  0  0
   15.6625    4.6239   -0.4349 F   0  0  0  0  0  0  0  0  0  0  0  0
   16.3342    4.4263   -2.5985 F   0  0  0  0  0  0  0  0  0  0  0  0
   14.1630    6.6343   -0.9197 F   0  0  0  0  0  0  0  0  0  0  0  0
   13.8015    5.0277   -2.4298 F   0  0  0  0  0  0  0  0  0  0  0  0
   15.5819    6.1223   -4.1861 F   0  0  0  0  0  0  0  0  0  0  0  0
   16.0927    7.7686   -2.8084 F   0  0  0  0  0  0  0  0  0  0  0  0
   12.9282    6.8961   -4.1202 F   0  0  0  0  0  0  0  0  0  0  0  0
   13.4233    8.6596   -2.8870 F   0  0  0  0  0  0  0  0  0  0  0  0
   15.4870    9.2687   -4.8034 F   0  0  0  0  0  0  0  0  0  0  0  0
   14.5312    7.7378   -6.1102 F   0  0  0  0  0  0  0  0  0  0  0  0
   12.0361    8.8525   -5.6107 F   0  0  0  0  0  0  0  0  0  0  0  0
   12.9240   10.0500   -3.9514 F   0  0  0  0  0  0  0  0  0  0  0  0
   13.9154   10.0378   -7.4014 F   0  0  0  0  0  0  0  0  0  0  0  0
   14.6305   11.2461   -5.6504 F   0  0  0  0  0  0  0  0  0  0  0  0
   12.6266   12.6303   -7.1962 O   0  0  0  0  0  0  0  0  0  0  0  0
  1  2  2  0
  1  3  1  0
  3  4  1  0
  4  5  1  0
  5  6  1  0
  6  7  1  0
  7  8  1  0
  8  9  1  0
  9 10  1  0
  9 11  1  0
  9 12  1  0
  8 13  1  0
  8 14  1  0
  7 15  1  0
  7 16  1  0
  6 17  1  0
  6 18  1  0
  5 19  1  0
  5 20  1  0
  4 21  1  0
  4 22  1  0
  3 23  1  0
  3 24  1  0
  1 25  1  0
M  END
$$$$
