
     RDKit          3D

 29 28  0  0  0  0  0  0  0  0999 V2000
   -6.4327   -4.4937    4.7757 C   0  0  0  0  0  0  0  0  0  0  0  0
   -6.0281   -4.6874    6.1783 C   0  0  0  0  0  0  0  0  0  0  0  0
   -6.6809   -5.8295    6.9069 C   0  0  0  0  0  0  0  0  0  0  0  0
   -5.9048   -6.6577    7.8245 C   0  0  0  0  0  0  0  0  0  0  0  0
   -6.5548   -7.8595    8.4361 C   0  0  0  0  0  0  0  0  0  0  0  0
   -6.9809   -8.7314    7.4151 F   0  0  0  0  0  0  0  0  0  0  0  0
   -7.7370   -7.5277    9.0971 F   0  0  0  0  0  0  0  0  0  0  0  0
   -5.6214   -8.7952    9.5832 S   0  0  0  0  0  0  0  0  0  0  0  0
   -6.5526   -9.7932   10.2309 O   0  0  0  0  0  0  0  0  0  0  0  0
   -5.1571   -7.8400   10.6688 O   0  0  0  0  0  0  0  0  0  0  0  0
   -4.3284   -9.5791    8.9177 O   0  0  0  0  0  0  0  0  0  0  0  0
   -5.4420   -5.8885    8.8886 F   0  0  0  0  0  0  0  0  0  0  0  0
   -4.7055   -7.1408    7.2427 F   0  0  0  0  0  0  0  0  0  0  0  0
   -7.3896   -6.5361    5.9478 F   0  0  0  0  0  0  0  0  0  0  0  0
   -7.7137   -5.1783    7.6418 F   0  0  0  0  0  0  0  0  0  0  0  0
   -4.6315   -4.7606    6.3065 F   0  0  0  0  0  0  0  0  0  0  0  0
   -6.3857   -3.5638    6.9394 F   0  0  0  0  0  0  0  0  0  0  0  0
   -5.4674   -3.7482    3.8934 C   0  0  0  0  0  0  0  0  0  0  0  0
   -5.7562   -3.6306    2.4572 C   0  0  0  0  0  0  0  0  0  0  0  0
   -4.6603   -3.1144    1.5853 C   0  0  0  0  0  0  0  0  0  0  0  0
   -4.3154   -1.8658    2.0779 F   0  0  0  0  0  0  0  0  0  0  0  0
   -5.2519   -2.8489    0.3417 F   0  0  0  0  0  0  0  0  0  0  0  0
   -3.5905   -3.8988    1.3721 F   0  0  0  0  0  0  0  0  0  0  0  0
   -6.7429   -2.6137    2.3660 F   0  0  0  0  0  0  0  0  0  0  0  0
   -6.4277   -4.7151    1.8983 F   0  0  0  0  0  0  0  0  0  0  0  0
   -4.2616   -4.4528    4.0123 F   0  0  0  0  0  0  0  0  0  0  0  0
   -5.2187   -2.5199    4.4361 F   0  0  0  0  0  0  0  0  0  0  0  0
   -6.4172   -5.7720    4.1459 F   0  0  0  0  0  0  0  0  0  0  0  0
   -7.7200   -4.0620    4.6728 F   0  0  0  0  0  0  0  0  0  0  0  0
  1  2  1  0
  2  3  1  0
  3  4  1  0
  4  5  1  0
  5  6  1  0
  5  7  1  0
  5  8  1  0
  8  9  2  0
  8 10  2  0
  8 11  1  0
  4 12  1  0
  4 13  1  0
  3 14  1  0
  3 15  1  0
  2 16  1  0
  2 17  1  0
  1 18  1  0
 18 19  1  0
 19 20  1  0
 20 21  1  0
 20 22  1  0
 20 23  1  0
 19 24  1  0
 19 25  1  0
 18 26  1  0
 18 27  1  0
  1 28  1  0
  1 29  1  0
M  END
$$$$
