
     RDKit          3D

 29 28  0  0  0  0  0  0  0  0999 V2000
   -8.9138  -11.2023   -0.5862 C   0  0  0  0  0  0  0  0  0  0  0  0
   -8.5871  -11.4606    0.8262 C   0  0  0  0  0  0  0  0  0  0  0  0
   -8.4290  -12.9036    1.2190 C   0  0  0  0  0  0  0  0  0  0  0  0
   -8.2075  -13.2671    2.6150 C   0  0  0  0  0  0  0  0  0  0  0  0
   -8.3716  -14.6983    3.0220 C   0  0  0  0  0  0  0  0  0  0  0  0
   -7.6325  -15.5206    2.1492 F   0  0  0  0  0  0  0  0  0  0  0  0
   -9.6842  -15.1370    2.8513 F   0  0  0  0  0  0  0  0  0  0  0  0
   -7.9397  -15.1337    4.6610 S   0  0  0  0  0  0  0  0  0  0  0  0
   -8.5786  -14.1276    5.5895 O   0  0  0  0  0  0  0  0  0  0  0  0
   -6.4349  -14.9720    4.7863 O   0  0  0  0  0  0  0  0  0  0  0  0
   -8.3897  -16.6640    5.0912 O   0  0  0  0  0  0  0  0  0  0  0  0
   -9.0550  -12.5337    3.4408 F   0  0  0  0  0  0  0  0  0  0  0  0
   -6.9202  -12.8953    3.0785 F   0  0  0  0  0  0  0  0  0  0  0  0
   -7.5127  -13.4411    0.3284 F   0  0  0  0  0  0  0  0  0  0  0  0
   -9.6590  -13.4789    0.7868 F   0  0  0  0  0  0  0  0  0  0  0  0
   -7.4712  -10.7161    1.2417 F   0  0  0  0  0  0  0  0  0  0  0  0
   -9.6296  -11.0077    1.6494 F   0  0  0  0  0  0  0  0  0  0  0  0
   -8.6385   -9.8135   -1.0978 C   0  0  0  0  0  0  0  0  0  0  0  0
   -8.8178   -9.5302   -2.5286 C   0  0  0  0  0  0  0  0  0  0  0  0
   -8.6791   -8.1084   -2.9609 C   0  0  0  0  0  0  0  0  0  0  0  0
   -9.8816   -7.4848   -2.6675 F   0  0  0  0  0  0  0  0  0  0  0  0
   -8.6320   -8.1359   -4.3622 F   0  0  0  0  0  0  0  0  0  0  0  0
   -7.6162   -7.4098   -2.5277 F   0  0  0  0  0  0  0  0  0  0  0  0
  -10.1854   -9.8108   -2.7871 F   0  0  0  0  0  0  0  0  0  0  0  0
   -8.1869  -10.4226   -3.3917 F   0  0  0  0  0  0  0  0  0  0  0  0
   -7.2872   -9.5879   -0.8018 F   0  0  0  0  0  0  0  0  0  0  0  0
   -9.3264   -8.9103   -0.3388 F   0  0  0  0  0  0  0  0  0  0  0  0
   -7.9982  -11.9516   -1.3807 F   0  0  0  0  0  0  0  0  0  0  0  0
  -10.1454  -11.6783   -0.9185 F   0  0  0  0  0  0  0  0  0  0  0  0
  1  2  1  0
  2  3  1  0
  3  4  1  0
  4  5  1  0
  5  6  1  0
  5  7  1  0
  5  8  1  0
  8  9  2  0
  8 10  2  0
  8 11  1  0
  4 12  1  0
  4 13  1  0
  3 14  1  0
  3 15  1  0
  2 16  1  0
  2 17  1  0
  1 18  1  0
 18 19  1  0
 19 20  1  0
 20 21  1  0
 20 22  1  0
 20 23  1  0
 19 24  1  0
 19 25  1  0
 18 26  1  0
 18 27  1  0
  1 28  1  0
  1 29  1  0
M  END
$$$$
