
     RDKit          3D

 29 28  0  0  0  0  0  0  0  0999 V2000
   -5.3598   -3.7954    5.0379 C   0  0  0  0  0  0  0  0  0  0  0  0
   -6.0900   -4.2221    6.2435 C   0  0  0  0  0  0  0  0  0  0  0  0
   -5.3897   -5.2165    7.1278 C   0  0  0  0  0  0  0  0  0  0  0  0
   -6.1252   -5.9157    8.1767 C   0  0  0  0  0  0  0  0  0  0  0  0
   -5.5209   -7.1425    8.7857 C   0  0  0  0  0  0  0  0  0  0  0  0
   -4.2537   -6.8270    9.3137 F   0  0  0  0  0  0  0  0  0  0  0  0
   -5.2421   -8.1132    7.8243 F   0  0  0  0  0  0  0  0  0  0  0  0
   -6.4307   -7.9648   10.0342 S   0  0  0  0  0  0  0  0  0  0  0  0
   -7.8994   -7.7484    9.7533 O   0  0  0  0  0  0  0  0  0  0  0  0
   -6.1154   -7.2726   11.3486 O   0  0  0  0  0  0  0  0  0  0  0  0
   -6.1097   -9.5815   10.1460 O   0  0  0  0  0  0  0  0  0  0  0  0
   -7.3794   -6.2977    7.7086 F   0  0  0  0  0  0  0  0  0  0  0  0
   -6.4432   -5.0756    9.2736 F   0  0  0  0  0  0  0  0  0  0  0  0
   -4.2268   -4.5934    7.5531 F   0  0  0  0  0  0  0  0  0  0  0  0
   -4.9055   -6.1761    6.1921 F   0  0  0  0  0  0  0  0  0  0  0  0
   -6.5280   -3.1212    6.9974 F   0  0  0  0  0  0  0  0  0  0  0  0
   -7.2733   -4.8824    5.8781 F   0  0  0  0  0  0  0  0  0  0  0  0
   -6.1925   -3.2894    3.8904 C   0  0  0  0  0  0  0  0  0  0  0  0
   -5.5217   -2.6675    2.7402 C   0  0  0  0  0  0  0  0  0  0  0  0
   -6.3490   -2.4273    1.5213 C   0  0  0  0  0  0  0  0  0  0  0  0
   -5.7401   -1.3953    0.8249 F   0  0  0  0  0  0  0  0  0  0  0  0
   -7.5554   -1.8772    1.9782 F   0  0  0  0  0  0  0  0  0  0  0  0
   -6.6471   -3.4752    0.7349 F   0  0  0  0  0  0  0  0  0  0  0  0
   -4.5793   -3.6345    2.3012 F   0  0  0  0  0  0  0  0  0  0  0  0
   -4.6897   -1.5946    3.0500 F   0  0  0  0  0  0  0  0  0  0  0  0
   -7.0222   -2.3126    4.4579 F   0  0  0  0  0  0  0  0  0  0  0  0
   -7.0372   -4.2796    3.4769 F   0  0  0  0  0  0  0  0  0  0  0  0
   -4.6400   -2.6113    5.3708 F   0  0  0  0  0  0  0  0  0  0  0  0
   -4.4090   -4.6990    4.6728 F   0  0  0  0  0  0  0  0  0  0  0  0
  1  2  1  0
  2  3  1  0
  3  4  1  0
  4  5  1  0
  5  6  1  0
  5  7  1  0
  5  8  1  0
  8  9  2  0
  8 10  2  0
  8 11  1  0
  4 12  1  0
  4 13  1  0
  3 14  1  0
  3 15  1  0
  2 16  1  0
  2 17  1  0
  1 18  1  0
 18 19  1  0
 19 20  1  0
 20 21  1  0
 20 22  1  0
 20 23  1  0
 19 24  1  0
 19 25  1  0
 18 26  1  0
 18 27  1  0
  1 28  1  0
  1 29  1  0
M  END
$$$$
