
     RDKit          3D

 29 28  0  0  0  0  0  0  0  0999 V2000
   12.6598  -10.9312    8.8145 C   0  0  0  0  0  0  0  0  0  0  0  0
   11.6971  -12.0092    9.0963 C   0  0  0  0  0  0  0  0  0  0  0  0
   10.8263  -11.8231   10.3081 C   0  0  0  0  0  0  0  0  0  0  0  0
   10.0161  -12.9285   10.8098 C   0  0  0  0  0  0  0  0  0  0  0  0
    9.0515  -12.6673   11.9244 C   0  0  0  0  0  0  0  0  0  0  0  0
    8.0802  -11.7418   11.4953 F   0  0  0  0  0  0  0  0  0  0  0  0
    9.6647  -12.0234   12.9985 F   0  0  0  0  0  0  0  0  0  0  0  0
    8.2138  -14.0399   12.6151 S   0  0  0  0  0  0  0  0  0  0  0  0
    8.2262  -15.1510   11.5913 O   0  0  0  0  0  0  0  0  0  0  0  0
    6.7663  -13.6271   12.8162 O   0  0  0  0  0  0  0  0  0  0  0  0
    8.8602  -14.5761   14.0378 O   0  0  0  0  0  0  0  0  0  0  0  0
   10.8375  -13.9637   11.2479 F   0  0  0  0  0  0  0  0  0  0  0  0
    9.2476  -13.5482    9.7922 F   0  0  0  0  0  0  0  0  0  0  0  0
   10.1293  -10.6437   10.0970 F   0  0  0  0  0  0  0  0  0  0  0  0
   11.7676  -11.4542   11.3124 F   0  0  0  0  0  0  0  0  0  0  0  0
   10.9112  -12.3057    7.9708 F   0  0  0  0  0  0  0  0  0  0  0  0
   12.3817  -13.2049    9.3633 F   0  0  0  0  0  0  0  0  0  0  0  0
   13.2828  -10.9261    7.4441 C   0  0  0  0  0  0  0  0  0  0  0  0
   14.2345   -9.8619    7.0955 C   0  0  0  0  0  0  0  0  0  0  0  0
   14.6536   -9.7687    5.6660 C   0  0  0  0  0  0  0  0  0  0  0  0
   15.6725   -8.8308    5.6111 F   0  0  0  0  0  0  0  0  0  0  0  0
   13.5839   -9.1633    4.9909 F   0  0  0  0  0  0  0  0  0  0  0  0
   14.9609  -10.9033    5.0152 F   0  0  0  0  0  0  0  0  0  0  0  0
   15.4383  -10.2178    7.7589 F   0  0  0  0  0  0  0  0  0  0  0  0
   13.9657   -8.6190    7.6632 F   0  0  0  0  0  0  0  0  0  0  0  0
   12.1993  -10.8115    6.5624 F   0  0  0  0  0  0  0  0  0  0  0  0
   13.8216  -12.1551    7.1906 F   0  0  0  0  0  0  0  0  0  0  0  0
   11.9299   -9.7081    8.7661 F   0  0  0  0  0  0  0  0  0  0  0  0
   13.5551  -10.7713    9.8278 F   0  0  0  0  0  0  0  0  0  0  0  0
  1  2  1  0
  2  3  1  0
  3  4  1  0
  4  5  1  0
  5  6  1  0
  5  7  1  0
  5  8  1  0
  8  9  2  0
  8 10  2  0
  8 11  1  0
  4 12  1  0
  4 13  1  0
  3 14  1  0
  3 15  1  0
  2 16  1  0
  2 17  1  0
  1 18  1  0
 18 19  1  0
 19 20  1  0
 20 21  1  0
 20 22  1  0
 20 23  1  0
 19 24  1  0
 19 25  1  0
 18 26  1  0
 18 27  1  0
  1 28  1  0
  1 29  1  0
M  END
$$$$
