
     RDKit          3D

 29 28  0  0  0  0  0  0  0  0999 V2000
   -8.6508  -10.5604   -0.3349 C   0  0  0  0  0  0  0  0  0  0  0  0
   -8.3725  -11.9794   -0.0561 C   0  0  0  0  0  0  0  0  0  0  0  0
   -8.5847  -12.4324    1.3620 C   0  0  0  0  0  0  0  0  0  0  0  0
   -8.1994  -13.7795    1.7705 C   0  0  0  0  0  0  0  0  0  0  0  0
   -8.2076  -14.1208    3.2280 C   0  0  0  0  0  0  0  0  0  0  0  0
   -9.4876  -13.8703    3.7599 F   0  0  0  0  0  0  0  0  0  0  0  0
   -7.3772  -13.2745    3.9619 F   0  0  0  0  0  0  0  0  0  0  0  0
   -7.7467  -15.7456    3.6867 S   0  0  0  0  0  0  0  0  0  0  0  0
   -6.7267  -16.2359    2.6857 O   0  0  0  0  0  0  0  0  0  0  0  0
   -8.9797  -16.6199    3.5403 O   0  0  0  0  0  0  0  0  0  0  0  0
   -7.1375  -15.8650    5.2177 O   0  0  0  0  0  0  0  0  0  0  0  0
   -6.9157  -14.0687    1.3159 F   0  0  0  0  0  0  0  0  0  0  0  0
   -8.9846  -14.7839    1.1502 F   0  0  0  0  0  0  0  0  0  0  0  0
   -9.8868  -12.0807    1.6820 F   0  0  0  0  0  0  0  0  0  0  0  0
   -7.8152  -11.4917    2.1062 F   0  0  0  0  0  0  0  0  0  0  0  0
   -9.0564  -12.8233   -0.9462 F   0  0  0  0  0  0  0  0  0  0  0  0
   -7.0169  -12.2566   -0.2910 F   0  0  0  0  0  0  0  0  0  0  0  0
   -8.5500  -10.1244   -1.7723 C   0  0  0  0  0  0  0  0  0  0  0  0
   -8.9374   -8.7533   -2.1321 C   0  0  0  0  0  0  0  0  0  0  0  0
   -8.7411   -8.3443   -3.5541 C   0  0  0  0  0  0  0  0  0  0  0  0
   -7.5038   -8.8342   -3.9412 F   0  0  0  0  0  0  0  0  0  0  0  0
   -8.5754   -6.9518   -3.5337 F   0  0  0  0  0  0  0  0  0  0  0  0
   -9.7097   -8.6298   -4.4405 F   0  0  0  0  0  0  0  0  0  0  0  0
   -8.0252   -7.9210   -1.4314 F   0  0  0  0  0  0  0  0  0  0  0  0
  -10.1555   -8.3264   -1.6091 F   0  0  0  0  0  0  0  0  0  0  0  0
   -9.4087  -10.9881   -2.4659 F   0  0  0  0  0  0  0  0  0  0  0  0
   -7.2999  -10.4099   -2.2421 F   0  0  0  0  0  0  0  0  0  0  0  0
  -10.0396  -10.3432   -0.1005 F   0  0  0  0  0  0  0  0  0  0  0  0
   -8.0093   -9.7354    0.5378 F   0  0  0  0  0  0  0  0  0  0  0  0
  1  2  1  0
  2  3  1  0
  3  4  1  0
  4  5  1  0
  5  6  1  0
  5  7  1  0
  5  8  1  0
  8  9  2  0
  8 10  2  0
  8 11  1  0
  4 12  1  0
  4 13  1  0
  3 14  1  0
  3 15  1  0
  2 16  1  0
  2 17  1  0
  1 18  1  0
 18 19  1  0
 19 20  1  0
 20 21  1  0
 20 22  1  0
 20 23  1  0
 19 24  1  0
 19 25  1  0
 18 26  1  0
 18 27  1  0
  1 28  1  0
  1 29  1  0
M  END
$$$$
