
     RDKit          3D

 26 29  0  0  0  0  0  0  0  0999 V2000
   16.7296  -29.0510   19.9056 C   0  0  0  0  0  0  0  0  0  0  0  0
   16.3528  -27.6112   19.8864 C   0  0  0  0  0  0  0  0  0  0  0  0
   17.0998  -26.9272   18.7900 C   0  0  0  0  0  0  0  0  0  0  0  0
   18.2187  -26.2177   19.2143 O   0  0  0  0  0  0  0  0  0  0  0  0
   18.2733  -25.5885   20.4252 C   0  0  0  0  0  0  0  0  0  0  0  0
   17.3450  -25.9807   21.3870 C   0  0  0  0  0  0  0  0  0  0  0  0
   16.4268  -26.9352   21.1541 N   0  0  0  0  0  0  0  0  0  0  0  0
   15.5234  -27.3125   22.0959 C   0  0  0  0  0  0  0  0  0  0  0  0
   15.5167  -26.7214   23.3408 C   0  0  0  0  0  0  0  0  0  0  0  0
   16.4386  -25.7377   23.6277 C   0  0  0  0  0  0  0  0  0  0  0  0
   16.4300  -25.2014   24.7620 O   0  0  0  0  0  0  0  0  0  0  0  0
   17.3295  -25.3960   22.6355 C   0  0  0  0  0  0  0  0  0  0  0  0
   18.2471  -24.4275   22.8975 C   0  0  0  0  0  0  0  0  0  0  0  0
   19.1747  -24.0299   21.9499 C   0  0  0  0  0  0  0  0  0  0  0  0
   19.2168  -24.6029   20.6735 C   0  0  0  0  0  0  0  0  0  0  0  0
   20.1826  -24.1983   19.7082 N   0  0  0  0  0  0  0  0  0  0  0  0
   19.6923  -23.6354   18.4605 C   0  0  0  0  0  0  0  0  0  0  0  0
   20.8040  -23.2830   17.4979 C   0  0  0  0  0  0  0  0  0  0  0  0
   21.8506  -22.6632   18.2858 N   0  0  0  0  0  0  0  0  0  0  0  0
   22.4975  -23.7914   18.9670 C   0  0  0  0  0  0  0  0  0  0  0  0
   21.5730  -24.3577   20.0280 C   0  0  0  0  0  0  0  0  0  0  0  0
   22.8575  -22.0329   17.4594 C   0  0  0  0  0  0  0  0  0  0  0  0
   20.0399  -23.0621   22.3311 F   0  0  0  0  0  0  0  0  0  0  0  0
   14.5518  -27.1189   24.3584 C   0  0  0  0  0  0  0  0  0  0  0  0
   14.5482  -26.5141   25.4625 O   0  0  0  0  0  0  0  0  0  0  0  0
   13.6444  -28.1302   24.1583 O   0  0  0  0  0  0  0  0  0  0  0  0
  1  2  1  0
  2  3  1  0
  3  4  1  0
  4  5  1  0
  5  6  1  0
  6  7  1  0
  7  8  1  0
  8  9  2  0
  9 10  1  0
 10 11  2  0
 10 12  1  0
 12 13  1  0
 13 14  2  0
 14 15  1  0
 15 16  1  0
 16 17  1  0
 17 18  1  0
 18 19  1  0
 19 20  1  0
 20 21  1  0
 19 22  1  0
 14 23  1  0
  9 24  1  0
 24 25  2  0
 24 26  1  0
  7  2  1  0
 15  5  2  0
 12  6  2  0
 21 16  1  0
M  END
$$$$
