
     RDKit          3D

 26 29  0  0  0  0  0  0  0  0999 V2000
    0.8675  -29.1694   -4.1810 C   0  0  0  0  0  0  0  0  0  0  0  0
    0.4348  -30.5386   -4.5725 C   0  0  0  0  0  0  0  0  0  0  0  0
    0.9509  -30.8396   -5.9404 C   0  0  0  0  0  0  0  0  0  0  0  0
    0.0114  -30.6849   -6.9546 O   0  0  0  0  0  0  0  0  0  0  0  0
   -1.3164  -30.9472   -6.7717 C   0  0  0  0  0  0  0  0  0  0  0  0
   -1.7768  -31.0067   -5.4583 C   0  0  0  0  0  0  0  0  0  0  0  0
   -0.9662  -30.8172   -4.4021 N   0  0  0  0  0  0  0  0  0  0  0  0
   -1.4211  -30.8776   -3.1235 C   0  0  0  0  0  0  0  0  0  0  0  0
   -2.7484  -31.1392   -2.8608 C   0  0  0  0  0  0  0  0  0  0  0  0
   -3.6189  -31.3407   -3.9103 C   0  0  0  0  0  0  0  0  0  0  0  0
   -4.8268  -31.5786   -3.6680 O   0  0  0  0  0  0  0  0  0  0  0  0
   -3.1026  -31.2677   -5.1843 C   0  0  0  0  0  0  0  0  0  0  0  0
   -3.9441  -31.4638   -6.2340 C   0  0  0  0  0  0  0  0  0  0  0  0
   -3.4981  -31.4065   -7.5434 C   0  0  0  0  0  0  0  0  0  0  0  0
   -2.1590  -31.1443   -7.8554 C   0  0  0  0  0  0  0  0  0  0  0  0
   -1.7101  -31.0736   -9.2050 N   0  0  0  0  0  0  0  0  0  0  0  0
   -2.4441  -30.2085  -10.1142 C   0  0  0  0  0  0  0  0  0  0  0  0
   -1.9044  -30.2469  -11.5263 C   0  0  0  0  0  0  0  0  0  0  0  0
   -0.4595  -30.2313  -11.4160 N   0  0  0  0  0  0  0  0  0  0  0  0
   -0.1194  -31.6011  -11.0121 C   0  0  0  0  0  0  0  0  0  0  0  0
   -0.5600  -31.8459   -9.5813 C   0  0  0  0  0  0  0  0  0  0  0  0
    0.1842  -29.9926  -12.6899 C   0  0  0  0  0  0  0  0  0  0  0  0
   -4.4313  -31.6120   -8.5012 F   0  0  0  0  0  0  0  0  0  0  0  0
   -3.2468  -31.2062   -1.4926 C   0  0  0  0  0  0  0  0  0  0  0  0
   -4.4347  -31.5731   -1.2953 O   0  0  0  0  0  0  0  0  0  0  0  0
   -2.4681  -30.8835   -0.4083 O   0  0  0  0  0  0  0  0  0  0  0  0
  1  2  1  0
  2  3  1  0
  3  4  1  0
  4  5  1  0
  5  6  1  0
  6  7  1  0
  7  8  1  0
  8  9  2  0
  9 10  1  0
 10 11  2  0
 10 12  1  0
 12 13  1  0
 13 14  2  0
 14 15  1  0
 15 16  1  0
 16 17  1  0
 17 18  1  0
 18 19  1  0
 19 20  1  0
 20 21  1  0
 19 22  1  0
 14 23  1  0
  9 24  1  0
 24 25  2  0
 24 26  1  0
  7  2  1  0
 15  5  2  0
 12  6  2  0
 21 16  1  0
M  END
$$$$
