
     RDKit          3D

 26 29  0  0  0  0  0  0  0  0999 V2000
   35.4017  -53.8569   15.8804 C   0  0  0  0  0  0  0  0  0  0  0  0
   35.2071  -52.6449   15.0387 C   0  0  0  0  0  0  0  0  0  0  0  0
   33.9077  -52.7598   14.3131 C   0  0  0  0  0  0  0  0  0  0  0  0
   34.0245  -53.1720   12.9896 O   0  0  0  0  0  0  0  0  0  0  0  0
   35.0911  -52.8333   12.2065 C   0  0  0  0  0  0  0  0  0  0  0  0
   36.2406  -52.3899   12.8566 C   0  0  0  0  0  0  0  0  0  0  0  0
   36.3180  -52.2922   14.1956 N   0  0  0  0  0  0  0  0  0  0  0  0
   37.4417  -51.8579   14.8236 C   0  0  0  0  0  0  0  0  0  0  0  0
   38.5573  -51.4973   14.0994 C   0  0  0  0  0  0  0  0  0  0  0  0
   38.5270  -51.5800   12.7238 C   0  0  0  0  0  0  0  0  0  0  0  0
   39.5444  -51.2509   12.0673 O   0  0  0  0  0  0  0  0  0  0  0  0
   37.3622  -52.0265   12.1418 C   0  0  0  0  0  0  0  0  0  0  0  0
   37.3109  -52.1153   10.7860 C   0  0  0  0  0  0  0  0  0  0  0  0
   36.1743  -52.5550   10.1292 C   0  0  0  0  0  0  0  0  0  0  0  0
   35.0195  -52.9307   10.8250 C   0  0  0  0  0  0  0  0  0  0  0  0
   33.8584  -53.3948   10.1432 N   0  0  0  0  0  0  0  0  0  0  0  0
   33.2667  -54.6438   10.5948 C   0  0  0  0  0  0  0  0  0  0  0  0
   32.0680  -55.0578    9.7712 C   0  0  0  0  0  0  0  0  0  0  0  0
   31.2925  -53.8557    9.5387 N   0  0  0  0  0  0  0  0  0  0  0  0
   32.0426  -53.1455    8.4956 C   0  0  0  0  0  0  0  0  0  0  0  0
   33.3382  -52.6008    9.0663 C   0  0  0  0  0  0  0  0  0  0  0  0
   29.9827  -54.1458    8.9962 C   0  0  0  0  0  0  0  0  0  0  0  0
   36.2475  -52.6062    8.7791 F   0  0  0  0  0  0  0  0  0  0  0  0
   39.7680  -51.0301   14.7633 C   0  0  0  0  0  0  0  0  0  0  0  0
   40.7234  -50.6088   14.0601 O   0  0  0  0  0  0  0  0  0  0  0  0
   39.9064  -51.0320   16.1297 O   0  0  0  0  0  0  0  0  0  0  0  0
  1  2  1  0
  2  3  1  0
  3  4  1  0
  4  5  1  0
  5  6  1  0
  6  7  1  0
  7  8  1  0
  8  9  2  0
  9 10  1  0
 10 11  2  0
 10 12  1  0
 12 13  1  0
 13 14  2  0
 14 15  1  0
 15 16  1  0
 16 17  1  0
 17 18  1  0
 18 19  1  0
 19 20  1  0
 20 21  1  0
 19 22  1  0
 14 23  1  0
  9 24  1  0
 24 25  2  0
 24 26  1  0
  7  2  1  0
 15  5  2  0
 12  6  2  0
 21 16  1  0
M  END
$$$$
