
     RDKit          3D

 26 29  0  0  0  0  0  0  0  0999 V2000
   25.3759  -60.0375    9.6646 C   0  0  0  0  0  0  0  0  0  0  0  0
   25.6720  -61.3737    9.0796 C   0  0  0  0  0  0  0  0  0  0  0  0
   26.7199  -62.0446    9.9042 C   0  0  0  0  0  0  0  0  0  0  0  0
   28.0031  -61.9702    9.3720 O   0  0  0  0  0  0  0  0  0  0  0  0
   28.2415  -61.9737    8.0272 C   0  0  0  0  0  0  0  0  0  0  0  0
   27.1690  -61.6707    7.1914 C   0  0  0  0  0  0  0  0  0  0  0  0
   25.9443  -61.3842    7.6671 N   0  0  0  0  0  0  0  0  0  0  0  0
   24.9021  -61.0906    6.8467 C   0  0  0  0  0  0  0  0  0  0  0  0
   25.0665  -61.0761    5.4784 C   0  0  0  0  0  0  0  0  0  0  0  0
   26.3035  -61.3632    4.9425 C   0  0  0  0  0  0  0  0  0  0  0  0
   26.4500  -61.3491    3.6965 O   0  0  0  0  0  0  0  0  0  0  0  0
   27.3225  -61.6534    5.8213 C   0  0  0  0  0  0  0  0  0  0  0  0
   28.5508  -61.9399    5.3135 C   0  0  0  0  0  0  0  0  0  0  0  0
   29.6239  -62.2419    6.1343 C   0  0  0  0  0  0  0  0  0  0  0  0
   29.5015  -62.2685    7.5283 C   0  0  0  0  0  0  0  0  0  0  0  0
   30.6132  -62.5669    8.3669 N   0  0  0  0  0  0  0  0  0  0  0  0
   30.4090  -63.5272    9.4392 C   0  0  0  0  0  0  0  0  0  0  0  0
   31.6436  -63.7317   10.2881 C   0  0  0  0  0  0  0  0  0  0  0  0
   32.7664  -63.7964    9.3740 N   0  0  0  0  0  0  0  0  0  0  0  0
   32.9919  -62.3977    8.9892 C   0  0  0  0  0  0  0  0  0  0  0  0
   31.8637  -61.9154    8.0972 C   0  0  0  0  0  0  0  0  0  0  0  0
   33.9746  -64.2578   10.0229 C   0  0  0  0  0  0  0  0  0  0  0  0
   30.7965  -62.5029    5.5116 F   0  0  0  0  0  0  0  0  0  0  0  0
   23.9548  -60.7623    4.5893 C   0  0  0  0  0  0  0  0  0  0  0  0
   24.1291  -60.8446    3.3453 O   0  0  0  0  0  0  0  0  0  0  0  0
   22.7220  -60.3795    5.0580 O   0  0  0  0  0  0  0  0  0  0  0  0
  1  2  1  0
  2  3  1  0
  3  4  1  0
  4  5  1  0
  5  6  1  0
  6  7  1  0
  7  8  1  0
  8  9  2  0
  9 10  1  0
 10 11  2  0
 10 12  1  0
 12 13  1  0
 13 14  2  0
 14 15  1  0
 15 16  1  0
 16 17  1  0
 17 18  1  0
 18 19  1  0
 19 20  1  0
 20 21  1  0
 19 22  1  0
 14 23  1  0
  9 24  1  0
 24 25  2  0
 24 26  1  0
  7  2  1  0
 15  5  2  0
 12  6  2  0
 21 16  1  0
M  END
$$$$
