
     RDKit          3D

 26 29  0  0  0  0  0  0  0  0999 V2000
   31.7222  -70.1900   31.4369 C   0  0  0  0  0  0  0  0  0  0  0  0
   32.1865  -68.8384   31.8527 C   0  0  0  0  0  0  0  0  0  0  0  0
   32.8218  -68.1612   30.6840 C   0  0  0  0  0  0  0  0  0  0  0  0
   34.2123  -68.2011   30.6844 O   0  0  0  0  0  0  0  0  0  0  0  0
   34.9474  -68.1699   31.8351 C   0  0  0  0  0  0  0  0  0  0  0  0
   34.2846  -68.4796   33.0206 C   0  0  0  0  0  0  0  0  0  0  0  0
   32.9785  -68.7984   33.0529 N   0  0  0  0  0  0  0  0  0  0  0  0
   32.3375  -69.0984   34.2125 C   0  0  0  0  0  0  0  0  0  0  0  0
   33.0137  -69.0863   35.4133 C   0  0  0  0  0  0  0  0  0  0  0  0
   34.3541  -68.7657   35.4319 C   0  0  0  0  0  0  0  0  0  0  0  0
   34.9669  -68.7555   36.5267 O   0  0  0  0  0  0  0  0  0  0  0  0
   34.9513  -68.4705   34.2273 C   0  0  0  0  0  0  0  0  0  0  0  0
   36.2729  -68.1511   34.2233 C   0  0  0  0  0  0  0  0  0  0  0  0
   36.9422  -67.8420   33.0515 C   0  0  0  0  0  0  0  0  0  0  0  0
   36.2946  -67.8418   31.8106 C   0  0  0  0  0  0  0  0  0  0  0  0
   36.9927  -67.5359   30.6076 N   0  0  0  0  0  0  0  0  0  0  0  0
   36.3631  -67.9075   29.3508 C   0  0  0  0  0  0  0  0  0  0  0  0
   37.2136  -67.5731   28.1460 C   0  0  0  0  0  0  0  0  0  0  0  0
   37.7749  -66.2592   28.3893 N   0  0  0  0  0  0  0  0  0  0  0  0
   38.8505  -66.5064   29.3574 C   0  0  0  0  0  0  0  0  0  0  0  0
   38.2618  -66.8722   30.7068 C   0  0  0  0  0  0  0  0  0  0  0  0
   38.3903  -65.6991   27.2055 C   0  0  0  0  0  0  0  0  0  0  0  0
   38.2569  -67.5473   33.1751 F   0  0  0  0  0  0  0  0  0  0  0  0
   32.3354  -69.4068   36.6631 C   0  0  0  0  0  0  0  0  0  0  0  0
   32.9741  -69.3107   37.7437 O   0  0  0  0  0  0  0  0  0  0  0  0
   31.0233  -69.8103   36.7069 O   0  0  0  0  0  0  0  0  0  0  0  0
  1  2  1  0
  2  3  1  0
  3  4  1  0
  4  5  1  0
  5  6  1  0
  6  7  1  0
  7  8  1  0
  8  9  2  0
  9 10  1  0
 10 11  2  0
 10 12  1  0
 12 13  1  0
 13 14  2  0
 14 15  1  0
 15 16  1  0
 16 17  1  0
 17 18  1  0
 18 19  1  0
 19 20  1  0
 20 21  1  0
 19 22  1  0
 14 23  1  0
  9 24  1  0
 24 25  2  0
 24 26  1  0
  7  2  1  0
 15  5  2  0
 12  6  2  0
 21 16  1  0
M  END
$$$$
