
     RDKit          3D

 26 29  0  0  0  0  0  0  0  0999 V2000
   17.2013  -24.8057   21.5520 C   0  0  0  0  0  0  0  0  0  0  0  0
   18.1108  -24.3513   20.4650 C   0  0  0  0  0  0  0  0  0  0  0  0
   19.1503  -25.3968   20.2314 C   0  0  0  0  0  0  0  0  0  0  0  0
   20.3783  -25.1277   20.8270 O   0  0  0  0  0  0  0  0  0  0  0  0
   20.8627  -23.8587   20.9698 C   0  0  0  0  0  0  0  0  0  0  0  0
   19.9486  -22.8137   20.8565 C   0  0  0  0  0  0  0  0  0  0  0  0
   18.6419  -23.0231   20.6174 N   0  0  0  0  0  0  0  0  0  0  0  0
   17.7555  -21.9995   20.5069 C   0  0  0  0  0  0  0  0  0  0  0  0
   18.1710  -20.6921   20.6379 C   0  0  0  0  0  0  0  0  0  0  0  0
   19.5010  -20.4262   20.8836 C   0  0  0  0  0  0  0  0  0  0  0  0
   19.8762  -19.2348   21.0024 O   0  0  0  0  0  0  0  0  0  0  0  0
   20.3535  -21.5021   20.9858 C   0  0  0  0  0  0  0  0  0  0  0  0
   21.6698  -21.2620   21.2275 C   0  0  0  0  0  0  0  0  0  0  0  0
   22.5872  -22.2924   21.3426 C   0  0  0  0  0  0  0  0  0  0  0  0
   22.2088  -23.6340   21.2161 C   0  0  0  0  0  0  0  0  0  0  0  0
   23.1558  -24.6894   21.3490 N   0  0  0  0  0  0  0  0  0  0  0  0
   23.9820  -24.7058   22.5453 C   0  0  0  0  0  0  0  0  0  0  0  0
   24.9772  -25.8443   22.5565 C   0  0  0  0  0  0  0  0  0  0  0  0
   24.2727  -27.0127   22.0678 N   0  0  0  0  0  0  0  0  0  0  0  0
   24.1963  -26.8002   20.6172 C   0  0  0  0  0  0  0  0  0  0  0  0
   23.2287  -25.6739   20.3068 C   0  0  0  0  0  0  0  0  0  0  0  0
   25.0227  -28.2321   22.2789 C   0  0  0  0  0  0  0  0  0  0  0  0
   23.8664  -21.9276   21.5901 F   0  0  0  0  0  0  0  0  0  0  0  0
   17.2282  -19.5865   20.5211 C   0  0  0  0  0  0  0  0  0  0  0  0
   16.5074  -19.2948   21.5111 O   0  0  0  0  0  0  0  0  0  0  0  0
   17.0960  -18.8495   19.3698 O   0  0  0  0  0  0  0  0  0  0  0  0
  1  2  1  0
  2  3  1  0
  3  4  1  0
  4  5  1  0
  5  6  1  0
  6  7  1  0
  7  8  1  0
  8  9  2  0
  9 10  1  0
 10 11  2  0
 10 12  1  0
 12 13  1  0
 13 14  2  0
 14 15  1  0
 15 16  1  0
 16 17  1  0
 17 18  1  0
 18 19  1  0
 19 20  1  0
 20 21  1  0
 19 22  1  0
 14 23  1  0
  9 24  1  0
 24 25  2  0
 24 26  1  0
  7  2  1  0
 15  5  2  0
 12  6  2  0
 21 16  1  0
M  END
$$$$
