
     RDKit          3D

 25 24  0  0  0  0  0  0  0  0999 V2000
   -0.8916   -9.0559   -7.8901 C   0  0  0  0  0  0  0  0  0  0  0  0
    0.1025   -9.4383   -8.5449 O   0  0  0  0  0  0  0  0  0  0  0  0
   -1.4709   -7.7267   -7.8304 C   0  0  0  0  0  0  0  0  0  0  0  0
   -2.1241   -7.2325   -9.1074 C   0  0  0  0  0  0  0  0  0  0  0  0
   -2.8270   -5.9395   -9.0035 C   0  0  0  0  0  0  0  0  0  0  0  0
   -3.4100   -5.4787  -10.3198 C   0  0  0  0  0  0  0  0  0  0  0  0
   -3.3727   -4.0621  -10.6669 C   0  0  0  0  0  0  0  0  0  0  0  0
   -3.4914   -3.7853  -12.1263 C   0  0  0  0  0  0  0  0  0  0  0  0
   -3.0774   -2.5014  -12.6989 C   0  0  0  0  0  0  0  0  0  0  0  0
   -1.9260   -2.4461  -13.4247 F   0  0  0  0  0  0  0  0  0  0  0  0
   -2.8562   -1.6337  -11.6038 F   0  0  0  0  0  0  0  0  0  0  0  0
   -4.0738   -1.8917  -13.4585 F   0  0  0  0  0  0  0  0  0  0  0  0
   -4.8136   -4.1136  -12.4593 F   0  0  0  0  0  0  0  0  0  0  0  0
   -2.7409   -4.8061  -12.7567 F   0  0  0  0  0  0  0  0  0  0  0  0
   -4.3886   -3.3224  -10.0065 F   0  0  0  0  0  0  0  0  0  0  0  0
   -2.1988   -3.4674  -10.2397 F   0  0  0  0  0  0  0  0  0  0  0  0
   -2.8357   -6.2258  -11.3501 F   0  0  0  0  0  0  0  0  0  0  0  0
   -4.7669   -5.9113  -10.3428 F   0  0  0  0  0  0  0  0  0  0  0  0
   -2.0668   -4.8916   -8.4884 F   0  0  0  0  0  0  0  0  0  0  0  0
   -3.8910   -6.1074   -8.0918 F   0  0  0  0  0  0  0  0  0  0  0  0
   -3.1401   -8.2134   -9.3043 F   0  0  0  0  0  0  0  0  0  0  0  0
   -1.2981   -7.2976  -10.1806 F   0  0  0  0  0  0  0  0  0  0  0  0
   -2.5067   -7.7765   -6.8889 F   0  0  0  0  0  0  0  0  0  0  0  0
   -0.5889   -6.7661   -7.3850 F   0  0  0  0  0  0  0  0  0  0  0  0
   -1.5155  -10.0602   -7.1170 O   0  0  0  0  0  0  0  0  0  0  0  0
  1  2  2  0
  1  3  1  0
  3  4  1  0
  4  5  1  0
  5  6  1  0
  6  7  1  0
  7  8  1  0
  8  9  1  0
  9 10  1  0
  9 11  1  0
  9 12  1  0
  8 13  1  0
  8 14  1  0
  7 15  1  0
  7 16  1  0
  6 17  1  0
  6 18  1  0
  5 19  1  0
  5 20  1  0
  4 21  1  0
  4 22  1  0
  3 23  1  0
  3 24  1  0
  1 25  1  0
M  END
$$$$
