
     RDKit          3D

 25 24  0  0  0  0  0  0  0  0999 V2000
   -4.3892  -19.3681    9.4769 C   0  0  0  0  0  0  0  0  0  0  0  0
   -4.5857  -20.3341    8.7078 O   0  0  0  0  0  0  0  0  0  0  0  0
   -3.9021  -18.0416    9.1469 C   0  0  0  0  0  0  0  0  0  0  0  0
   -2.5095  -17.9789    8.5483 C   0  0  0  0  0  0  0  0  0  0  0  0
   -2.0558  -16.6384    8.1312 C   0  0  0  0  0  0  0  0  0  0  0  0
   -0.8352  -16.6805    7.2407 C   0  0  0  0  0  0  0  0  0  0  0  0
   -0.3746  -15.4572    6.5926 C   0  0  0  0  0  0  0  0  0  0  0  0
    0.6544  -15.6731    5.5366 C   0  0  0  0  0  0  0  0  0  0  0  0
    1.2608  -14.5499    4.8165 C   0  0  0  0  0  0  0  0  0  0  0  0
    0.4479  -13.5995    4.2767 F   0  0  0  0  0  0  0  0  0  0  0  0
    1.9431  -15.1115    3.7118 F   0  0  0  0  0  0  0  0  0  0  0  0
    2.2375  -13.8862    5.5559 F   0  0  0  0  0  0  0  0  0  0  0  0
    0.0996  -16.6236    4.6674 F   0  0  0  0  0  0  0  0  0  0  0  0
    1.6921  -16.3924    6.1756 F   0  0  0  0  0  0  0  0  0  0  0  0
   -1.4423  -14.7270    6.0074 F   0  0  0  0  0  0  0  0  0  0  0  0
    0.1688  -14.5735    7.5080 F   0  0  0  0  0  0  0  0  0  0  0  0
    0.2193  -17.2554    7.9528 F   0  0  0  0  0  0  0  0  0  0  0  0
   -1.0945  -17.6527    6.2326 F   0  0  0  0  0  0  0  0  0  0  0  0
   -1.7882  -15.7527    9.1730 F   0  0  0  0  0  0  0  0  0  0  0  0
   -3.1065  -16.0435    7.4007 F   0  0  0  0  0  0  0  0  0  0  0  0
   -2.6845  -18.7229    7.3445 F   0  0  0  0  0  0  0  0  0  0  0  0
   -1.5870  -18.6392    9.2908 F   0  0  0  0  0  0  0  0  0  0  0  0
   -4.7476  -17.5336    8.1525 F   0  0  0  0  0  0  0  0  0  0  0  0
   -3.9698  -17.1569   10.2014 F   0  0  0  0  0  0  0  0  0  0  0  0
   -4.6851  -19.6206   10.8350 O   0  0  0  0  0  0  0  0  0  0  0  0
  1  2  2  0
  1  3  1  0
  3  4  1  0
  4  5  1  0
  5  6  1  0
  6  7  1  0
  7  8  1  0
  8  9  1  0
  9 10  1  0
  9 11  1  0
  9 12  1  0
  8 13  1  0
  8 14  1  0
  7 15  1  0
  7 16  1  0
  6 17  1  0
  6 18  1  0
  5 19  1  0
  5 20  1  0
  4 21  1  0
  4 22  1  0
  3 23  1  0
  3 24  1  0
  1 25  1  0
M  END
$$$$
