
     RDKit          3D

 25 24  0  0  0  0  0  0  0  0999 V2000
   -0.0091  -10.9575   -8.1695 C   0  0  0  0  0  0  0  0  0  0  0  0
    1.1453  -10.4819   -8.2359 O   0  0  0  0  0  0  0  0  0  0  0  0
   -1.2738  -10.2463   -8.1477 C   0  0  0  0  0  0  0  0  0  0  0  0
   -1.1821   -8.7391   -8.0000 C   0  0  0  0  0  0  0  0  0  0  0  0
   -2.4603   -8.0102   -8.1081 C   0  0  0  0  0  0  0  0  0  0  0  0
   -2.2784   -6.5523   -8.4634 C   0  0  0  0  0  0  0  0  0  0  0  0
   -3.1377   -5.9453   -9.4743 C   0  0  0  0  0  0  0  0  0  0  0  0
   -2.9193   -4.4839   -9.6671 C   0  0  0  0  0  0  0  0  0  0  0  0
   -3.4004   -3.7886  -10.8641 C   0  0  0  0  0  0  0  0  0  0  0  0
   -2.9285   -4.1741  -12.0824 F   0  0  0  0  0  0  0  0  0  0  0  0
   -2.9922   -2.4408  -10.7285 F   0  0  0  0  0  0  0  0  0  0  0  0
   -4.7901   -3.7468  -10.9541 F   0  0  0  0  0  0  0  0  0  0  0  0
   -1.5483   -4.2825   -9.4510 F   0  0  0  0  0  0  0  0  0  0  0  0
   -3.5136   -3.8711   -8.5385 F   0  0  0  0  0  0  0  0  0  0  0  0
   -2.9972   -6.5703  -10.7413 F   0  0  0  0  0  0  0  0  0  0  0  0
   -4.4763   -6.1143   -9.1680 F   0  0  0  0  0  0  0  0  0  0  0  0
   -2.3324   -5.7955   -7.2913 F   0  0  0  0  0  0  0  0  0  0  0  0
   -0.9232   -6.3942   -8.8721 F   0  0  0  0  0  0  0  0  0  0  0  0
   -3.2746   -8.0714   -6.9792 F   0  0  0  0  0  0  0  0  0  0  0  0
   -3.2095   -8.6184   -9.1379 F   0  0  0  0  0  0  0  0  0  0  0  0
   -0.4328   -8.3856   -9.1605 F   0  0  0  0  0  0  0  0  0  0  0  0
   -0.4490   -8.3591   -6.9247 F   0  0  0  0  0  0  0  0  0  0  0  0
   -1.8780  -10.4526   -9.3944 F   0  0  0  0  0  0  0  0  0  0  0  0
   -2.1559  -10.7296   -7.2056 F   0  0  0  0  0  0  0  0  0  0  0  0
   -0.0678  -12.3677   -8.1088 O   0  0  0  0  0  0  0  0  0  0  0  0
  1  2  2  0
  1  3  1  0
  3  4  1  0
  4  5  1  0
  5  6  1  0
  6  7  1  0
  7  8  1  0
  8  9  1  0
  9 10  1  0
  9 11  1  0
  9 12  1  0
  8 13  1  0
  8 14  1  0
  7 15  1  0
  7 16  1  0
  6 17  1  0
  6 18  1  0
  5 19  1  0
  5 20  1  0
  4 21  1  0
  4 22  1  0
  3 23  1  0
  3 24  1  0
  1 25  1  0
M  END
$$$$
