
     RDKit          3D

 25 24  0  0  0  0  0  0  0  0999 V2000
    0.9497  -21.2289    8.2134 C   0  0  0  0  0  0  0  0  0  0  0  0
    0.5115  -21.3785    7.0520 O   0  0  0  0  0  0  0  0  0  0  0  0
    0.8702  -20.0523    9.0590 C   0  0  0  0  0  0  0  0  0  0  0  0
    0.1711  -18.8495    8.4538 C   0  0  0  0  0  0  0  0  0  0  0  0
   -0.0369  -17.7088    9.3660 C   0  0  0  0  0  0  0  0  0  0  0  0
   -0.9977  -16.6808    8.8137 C   0  0  0  0  0  0  0  0  0  0  0  0
   -1.3244  -15.5012    9.6078 C   0  0  0  0  0  0  0  0  0  0  0  0
   -2.4426  -14.6834    9.0590 C   0  0  0  0  0  0  0  0  0  0  0  0
   -2.9817  -13.5334    9.7904 C   0  0  0  0  0  0  0  0  0  0  0  0
   -3.5102  -13.7319   11.0300 F   0  0  0  0  0  0  0  0  0  0  0  0
   -4.0566  -13.0404    9.0140 F   0  0  0  0  0  0  0  0  0  0  0  0
   -2.0814  -12.4746    9.8901 F   0  0  0  0  0  0  0  0  0  0  0  0
   -3.4399  -15.6058    8.7104 F   0  0  0  0  0  0  0  0  0  0  0  0
   -1.9804  -14.2235    7.8031 F   0  0  0  0  0  0  0  0  0  0  0  0
   -1.6539  -15.8329   10.9483 F   0  0  0  0  0  0  0  0  0  0  0  0
   -0.2345  -14.6583    9.7333 F   0  0  0  0  0  0  0  0  0  0  0  0
   -0.5520  -16.2835    7.5516 F   0  0  0  0  0  0  0  0  0  0  0  0
   -2.2080  -17.3687    8.5123 F   0  0  0  0  0  0  0  0  0  0  0  0
    1.1225  -17.0390    9.7512 F   0  0  0  0  0  0  0  0  0  0  0  0
   -0.5852  -18.2174   10.5627 F   0  0  0  0  0  0  0  0  0  0  0  0
   -1.1264  -19.3788    8.1899 F   0  0  0  0  0  0  0  0  0  0  0  0
    0.6977  -18.4797    7.2604 F   0  0  0  0  0  0  0  0  0  0  0  0
    0.0933  -20.4021   10.1707 F   0  0  0  0  0  0  0  0  0  0  0  0
    2.0927  -19.6506    9.5522 F   0  0  0  0  0  0  0  0  0  0  0  0
    1.6013  -22.3604    8.7526 O   0  0  0  0  0  0  0  0  0  0  0  0
  1  2  2  0
  1  3  1  0
  3  4  1  0
  4  5  1  0
  5  6  1  0
  6  7  1  0
  7  8  1  0
  8  9  1  0
  9 10  1  0
  9 11  1  0
  9 12  1  0
  8 13  1  0
  8 14  1  0
  7 15  1  0
  7 16  1  0
  6 17  1  0
  6 18  1  0
  5 19  1  0
  5 20  1  0
  4 21  1  0
  4 22  1  0
  3 23  1  0
  3 24  1  0
  1 25  1  0
M  END
$$$$
