
     RDKit          3D

 25 24  0  0  0  0  0  0  0  0999 V2000
   -4.4236  -18.3198   11.5877 C   0  0  0  0  0  0  0  0  0  0  0  0
   -4.3606  -17.3315   12.3507 O   0  0  0  0  0  0  0  0  0  0  0  0
   -3.8436  -18.4731   10.2663 C   0  0  0  0  0  0  0  0  0  0  0  0
   -3.0984  -17.2664    9.7276 C   0  0  0  0  0  0  0  0  0  0  0  0
   -2.3744  -17.4794    8.4599 C   0  0  0  0  0  0  0  0  0  0  0  0
   -1.4010  -16.3671    8.1437 C   0  0  0  0  0  0  0  0  0  0  0  0
   -0.6357  -16.4117    6.9023 C   0  0  0  0  0  0  0  0  0  0  0  0
    0.4022  -15.3491    6.7835 C   0  0  0  0  0  0  0  0  0  0  0  0
    1.3079  -15.2876    5.6330 C   0  0  0  0  0  0  0  0  0  0  0  0
    2.0593  -14.1667    5.4472 F   0  0  0  0  0  0  0  0  0  0  0  0
    0.4898  -15.3692    4.4818 F   0  0  0  0  0  0  0  0  0  0  0  0
    2.1692  -16.3799    5.5528 F   0  0  0  0  0  0  0  0  0  0  0  0
    1.0939  -15.3688    8.0034 F   0  0  0  0  0  0  0  0  0  0  0  0
   -0.3122  -14.1289    6.8416 F   0  0  0  0  0  0  0  0  0  0  0  0
    0.0089  -17.6628    6.7157 F   0  0  0  0  0  0  0  0  0  0  0  0
   -1.4586  -16.2946    5.7963 F   0  0  0  0  0  0  0  0  0  0  0  0
   -2.0718  -15.1458    8.2333 F   0  0  0  0  0  0  0  0  0  0  0  0
   -0.4861  -16.2986    9.2332 F   0  0  0  0  0  0  0  0  0  0  0  0
   -3.1823  -17.6647    7.3400 F   0  0  0  0  0  0  0  0  0  0  0  0
   -1.6392  -18.6772    8.5877 F   0  0  0  0  0  0  0  0  0  0  0  0
   -2.0945  -17.0851   10.7238 F   0  0  0  0  0  0  0  0  0  0  0  0
   -3.8548  -16.1413    9.7188 F   0  0  0  0  0  0  0  0  0  0  0  0
   -2.8780  -19.4833   10.3607 F   0  0  0  0  0  0  0  0  0  0  0  0
   -4.7505  -18.8922    9.3171 F   0  0  0  0  0  0  0  0  0  0  0  0
   -5.1570  -19.4157   12.0946 O   0  0  0  0  0  0  0  0  0  0  0  0
  1  2  2  0
  1  3  1  0
  3  4  1  0
  4  5  1  0
  5  6  1  0
  6  7  1  0
  7  8  1  0
  8  9  1  0
  9 10  1  0
  9 11  1  0
  9 12  1  0
  8 13  1  0
  8 14  1  0
  7 15  1  0
  7 16  1  0
  6 17  1  0
  6 18  1  0
  5 19  1  0
  5 20  1  0
  4 21  1  0
  4 22  1  0
  3 23  1  0
  3 24  1  0
  1 25  1  0
M  END
$$$$
