
     RDKit          3D

 25 24  0  0  0  0  0  0  0  0999 V2000
    8.2365  -16.5385  -17.2487 C   0  0  0  0  0  0  0  0  0  0  0  0
    8.8656  -16.7165  -18.3143 O   0  0  0  0  0  0  0  0  0  0  0  0
    6.9222  -15.9502  -17.0689 C   0  0  0  0  0  0  0  0  0  0  0  0
    6.3563  -15.2167  -18.2703 C   0  0  0  0  0  0  0  0  0  0  0  0
    5.0075  -14.6467  -18.0906 C   0  0  0  0  0  0  0  0  0  0  0  0
    4.3465  -14.2747  -19.3982 C   0  0  0  0  0  0  0  0  0  0  0  0
    2.9480  -13.8591  -19.4049 C   0  0  0  0  0  0  0  0  0  0  0  0
    2.3554  -13.7235  -20.7655 C   0  0  0  0  0  0  0  0  0  0  0  0
    0.9864  -13.2382  -20.9602 C   0  0  0  0  0  0  0  0  0  0  0  0
    0.6539  -12.0032  -20.4914 F   0  0  0  0  0  0  0  0  0  0  0  0
    0.1468  -14.1310  -20.2535 F   0  0  0  0  0  0  0  0  0  0  0  0
    0.5635  -13.3040  -22.2862 F   0  0  0  0  0  0  0  0  0  0  0  0
    2.5742  -14.9602  -21.3897 F   0  0  0  0  0  0  0  0  0  0  0  0
    3.2289  -12.8554  -21.4625 F   0  0  0  0  0  0  0  0  0  0  0  0
    2.1226  -14.7457  -18.6646 F   0  0  0  0  0  0  0  0  0  0  0  0
    2.7791  -12.6413  -18.7704 F   0  0  0  0  0  0  0  0  0  0  0  0
    5.1238  -13.3037  -20.0327 F   0  0  0  0  0  0  0  0  0  0  0  0
    4.4857  -15.3972  -20.2638 F   0  0  0  0  0  0  0  0  0  0  0  0
    4.9404  -13.5358  -17.2524 F   0  0  0  0  0  0  0  0  0  0  0  0
    4.2114  -15.6301  -17.4656 F   0  0  0  0  0  0  0  0  0  0  0  0
    6.2079  -16.2807  -19.2079 F   0  0  0  0  0  0  0  0  0  0  0  0
    7.2331  -14.3340  -18.8091 F   0  0  0  0  0  0  0  0  0  0  0  0
    6.0321  -17.0065  -16.8364 F   0  0  0  0  0  0  0  0  0  0  0  0
    6.8391  -15.1250  -15.9682 F   0  0  0  0  0  0  0  0  0  0  0  0
    8.9075  -16.9718  -16.0834 O   0  0  0  0  0  0  0  0  0  0  0  0
  1  2  2  0
  1  3  1  0
  3  4  1  0
  4  5  1  0
  5  6  1  0
  6  7  1  0
  7  8  1  0
  8  9  1  0
  9 10  1  0
  9 11  1  0
  9 12  1  0
  8 13  1  0
  8 14  1  0
  7 15  1  0
  7 16  1  0
  6 17  1  0
  6 18  1  0
  5 19  1  0
  5 20  1  0
  4 21  1  0
  4 22  1  0
  3 23  1  0
  3 24  1  0
  1 25  1  0
M  END
$$$$
