
     RDKit          3D

 25 24  0  0  0  0  0  0  0  0999 V2000
    6.5969   -3.8122    1.9459 C   0  0  0  0  0  0  0  0  0  0  0  0
    7.6673   -4.2934    1.4935 O   0  0  0  0  0  0  0  0  0  0  0  0
    5.2976   -4.3465    1.5130 C   0  0  0  0  0  0  0  0  0  0  0  0
    5.1200   -4.1674   -0.0093 C   0  0  0  0  0  0  0  0  0  0  0  0
    3.7807   -4.7011   -0.3312 C   0  0  0  0  0  0  0  0  0  0  0  0
    3.2694   -4.6076   -1.7301 C   0  0  0  0  0  0  0  0  0  0  0  0
    1.9386   -5.1817   -1.9353 C   0  0  0  0  0  0  0  0  0  0  0  0
    1.3528   -5.0329   -3.3114 C   0  0  0  0  0  0  0  0  0  0  0  0
   -0.1081   -5.0936   -3.4548 C   0  0  0  0  0  0  0  0  0  0  0  0
   -0.5010   -6.4251   -3.6575 F   0  0  0  0  0  0  0  0  0  0  0  0
   -0.4069   -4.5088   -4.7057 F   0  0  0  0  0  0  0  0  0  0  0  0
   -0.8706   -4.4208   -2.5654 F   0  0  0  0  0  0  0  0  0  0  0  0
    1.9325   -5.9413   -4.1771 F   0  0  0  0  0  0  0  0  0  0  0  0
    1.7654   -3.7756   -3.7619 F   0  0  0  0  0  0  0  0  0  0  0  0
    1.0452   -4.6828   -1.0243 F   0  0  0  0  0  0  0  0  0  0  0  0
    2.0285   -6.5694   -1.6861 F   0  0  0  0  0  0  0  0  0  0  0  0
    3.3329   -3.2409   -2.0248 F   0  0  0  0  0  0  0  0  0  0  0  0
    4.2604   -5.2651   -2.4965 F   0  0  0  0  0  0  0  0  0  0  0  0
    2.8750   -3.9278    0.4381 F   0  0  0  0  0  0  0  0  0  0  0  0
    3.6370   -5.9959    0.1775 F   0  0  0  0  0  0  0  0  0  0  0  0
    5.2878   -2.8451   -0.2737 F   0  0  0  0  0  0  0  0  0  0  0  0
    6.1855   -4.9218   -0.5182 F   0  0  0  0  0  0  0  0  0  0  0  0
    5.2280   -5.6843    1.7607 F   0  0  0  0  0  0  0  0  0  0  0  0
    4.2784   -3.6717    2.1384 F   0  0  0  0  0  0  0  0  0  0  0  0
    6.6732   -2.7721    2.8569 O   0  0  0  0  0  0  0  0  0  0  0  0
  1  2  2  0
  1  3  1  0
  3  4  1  0
  4  5  1  0
  5  6  1  0
  6  7  1  0
  7  8  1  0
  8  9  1  0
  9 10  1  0
  9 11  1  0
  9 12  1  0
  8 13  1  0
  8 14  1  0
  7 15  1  0
  7 16  1  0
  6 17  1  0
  6 18  1  0
  5 19  1  0
  5 20  1  0
  4 21  1  0
  4 22  1  0
  3 23  1  0
  3 24  1  0
  1 25  1  0
M  END
$$$$
