
     RDKit          3D

 25 24  0  0  0  0  0  0  0  0999 V2000
    8.9146   -2.3681    5.2228 C   0  0  0  0  0  0  0  0  0  0  0  0
    8.2238   -2.8289    6.1675 O   0  0  0  0  0  0  0  0  0  0  0  0
    8.5528   -2.6528    3.8267 C   0  0  0  0  0  0  0  0  0  0  0  0
    7.2585   -3.4906    3.7642 C   0  0  0  0  0  0  0  0  0  0  0  0
    6.9201   -3.6156    2.3317 C   0  0  0  0  0  0  0  0  0  0  0  0
    5.4936   -3.7809    1.9255 C   0  0  0  0  0  0  0  0  0  0  0  0
    5.2967   -4.1937    0.5350 C   0  0  0  0  0  0  0  0  0  0  0  0
    3.9800   -4.8421    0.2117 C   0  0  0  0  0  0  0  0  0  0  0  0
    3.5668   -4.9111   -1.1964 C   0  0  0  0  0  0  0  0  0  0  0  0
    2.3463   -5.5966   -1.2904 F   0  0  0  0  0  0  0  0  0  0  0  0
    4.4552   -5.8119   -1.8253 F   0  0  0  0  0  0  0  0  0  0  0  0
    3.6281   -3.7855   -1.9410 F   0  0  0  0  0  0  0  0  0  0  0  0
    2.9682   -4.2628    0.9543 F   0  0  0  0  0  0  0  0  0  0  0  0
    4.0813   -6.1543    0.6826 F   0  0  0  0  0  0  0  0  0  0  0  0
    6.3053   -5.0252    0.1245 F   0  0  0  0  0  0  0  0  0  0  0  0
    5.3819   -3.0364   -0.2707 F   0  0  0  0  0  0  0  0  0  0  0  0
    4.9802   -4.6961    2.8515 F   0  0  0  0  0  0  0  0  0  0  0  0
    4.9170   -2.5175    2.1960 F   0  0  0  0  0  0  0  0  0  0  0  0
    7.5603   -4.8041    1.8983 F   0  0  0  0  0  0  0  0  0  0  0  0
    7.5456   -2.6058    1.5933 F   0  0  0  0  0  0  0  0  0  0  0  0
    7.5176   -4.6655    4.3956 F   0  0  0  0  0  0  0  0  0  0  0  0
    6.3667   -2.7056    4.5071 F   0  0  0  0  0  0  0  0  0  0  0  0
    8.3023   -1.4942    3.1553 F   0  0  0  0  0  0  0  0  0  0  0  0
    9.5510   -3.3735    3.2187 F   0  0  0  0  0  0  0  0  0  0  0  0
   10.0183   -1.5902    5.5297 O   0  0  0  0  0  0  0  0  0  0  0  0
  1  2  2  0
  1  3  1  0
  3  4  1  0
  4  5  1  0
  5  6  1  0
  6  7  1  0
  7  8  1  0
  8  9  1  0
  9 10  1  0
  9 11  1  0
  9 12  1  0
  8 13  1  0
  8 14  1  0
  7 15  1  0
  7 16  1  0
  6 17  1  0
  6 18  1  0
  5 19  1  0
  5 20  1  0
  4 21  1  0
  4 22  1  0
  3 23  1  0
  3 24  1  0
  1 25  1  0
M  END
$$$$
