
     RDKit          3D

 25 24  0  0  0  0  0  0  0  0999 V2000
   -9.8447    0.4090   18.9787 C   0  0  0  0  0  0  0  0  0  0  0  0
   -9.0692   -0.3776   18.3770 O   0  0  0  0  0  0  0  0  0  0  0  0
  -10.7234    1.3131   18.2228 C   0  0  0  0  0  0  0  0  0  0  0  0
   -9.8926    2.3915   17.4965 C   0  0  0  0  0  0  0  0  0  0  0  0
   -9.9161    2.0312   16.0641 C   0  0  0  0  0  0  0  0  0  0  0  0
   -9.2079    2.8977   15.0767 C   0  0  0  0  0  0  0  0  0  0  0  0
   -9.3777    2.4983   13.6787 C   0  0  0  0  0  0  0  0  0  0  0  0
   -8.8278    3.4399   12.6444 C   0  0  0  0  0  0  0  0  0  0  0  0
   -8.9161    3.0481   11.2313 C   0  0  0  0  0  0  0  0  0  0  0  0
   -7.8767    2.1552   10.9300 F   0  0  0  0  0  0  0  0  0  0  0  0
   -8.5471    4.1873   10.4816 F   0  0  0  0  0  0  0  0  0  0  0  0
  -10.1199    2.6826   10.7388 F   0  0  0  0  0  0  0  0  0  0  0  0
   -7.5185    3.7658   12.9446 F   0  0  0  0  0  0  0  0  0  0  0  0
   -9.5497    4.6273   12.7951 F   0  0  0  0  0  0  0  0  0  0  0  0
  -10.6969    2.2603   13.3951 F   0  0  0  0  0  0  0  0  0  0  0  0
   -8.7040    1.2694   13.5004 F   0  0  0  0  0  0  0  0  0  0  0  0
   -9.6893    4.1839   15.3462 F   0  0  0  0  0  0  0  0  0  0  0  0
   -7.8555    2.8435   15.4889 F   0  0  0  0  0  0  0  0  0  0  0  0
  -11.2811    2.0914   15.6855 F   0  0  0  0  0  0  0  0  0  0  0  0
   -9.5770    0.6849   15.8947 F   0  0  0  0  0  0  0  0  0  0  0  0
  -10.4564    3.5915   17.7940 F   0  0  0  0  0  0  0  0  0  0  0  0
   -8.6401    2.2576   18.1103 F   0  0  0  0  0  0  0  0  0  0  0  0
  -11.3985    0.6246   17.2605 F   0  0  0  0  0  0  0  0  0  0  0  0
  -11.5889    1.9518   19.0763 F   0  0  0  0  0  0  0  0  0  0  0  0
   -9.8495    0.4014   20.3634 O   0  0  0  0  0  0  0  0  0  0  0  0
  1  2  2  0
  1  3  1  0
  3  4  1  0
  4  5  1  0
  5  6  1  0
  6  7  1  0
  7  8  1  0
  8  9  1  0
  9 10  1  0
  9 11  1  0
  9 12  1  0
  8 13  1  0
  8 14  1  0
  7 15  1  0
  7 16  1  0
  6 17  1  0
  6 18  1  0
  5 19  1  0
  5 20  1  0
  4 21  1  0
  4 22  1  0
  3 23  1  0
  3 24  1  0
  1 25  1  0
M  END
$$$$
