
     RDKit          3D

 25 24  0  0  0  0  0  0  0  0999 V2000
    8.6763   -3.5901    0.5367 C   0  0  0  0  0  0  0  0  0  0  0  0
    9.1436   -4.5467   -0.1331 O   0  0  0  0  0  0  0  0  0  0  0  0
    7.2366   -3.5140    0.8235 C   0  0  0  0  0  0  0  0  0  0  0  0
    6.4939   -4.7032    0.1793 C   0  0  0  0  0  0  0  0  0  0  0  0
    5.0630   -4.3362    0.1700 C   0  0  0  0  0  0  0  0  0  0  0  0
    4.0651   -5.2841   -0.4070 C   0  0  0  0  0  0  0  0  0  0  0  0
    2.7311   -4.7181   -0.6137 C   0  0  0  0  0  0  0  0  0  0  0  0
    1.8268   -5.4668   -1.5520 C   0  0  0  0  0  0  0  0  0  0  0  0
    0.3850   -5.1907   -1.4955 C   0  0  0  0  0  0  0  0  0  0  0  0
    0.0974   -4.4523   -0.3377 F   0  0  0  0  0  0  0  0  0  0  0  0
   -0.2431   -6.4251   -1.2163 F   0  0  0  0  0  0  0  0  0  0  0  0
   -0.2269   -4.7335   -2.6098 F   0  0  0  0  0  0  0  0  0  0  0  0
    2.0339   -6.8280   -1.4290 F   0  0  0  0  0  0  0  0  0  0  0  0
    2.2653   -5.1394   -2.8383 F   0  0  0  0  0  0  0  0  0  0  0  0
    2.8120   -3.4158   -1.0316 F   0  0  0  0  0  0  0  0  0  0  0  0
    2.0779   -4.6946    0.6388 F   0  0  0  0  0  0  0  0  0  0  0  0
    4.6650   -5.7310   -1.5899 F   0  0  0  0  0  0  0  0  0  0  0  0
    4.0537   -6.3616    0.5098 F   0  0  0  0  0  0  0  0  0  0  0  0
    4.9786   -3.1800   -0.6464 F   0  0  0  0  0  0  0  0  0  0  0  0
    4.6668   -3.8875    1.4340 F   0  0  0  0  0  0  0  0  0  0  0  0
    7.0437   -4.8940   -1.0485 F   0  0  0  0  0  0  0  0  0  0  0  0
    6.8198   -5.7549    1.0460 F   0  0  0  0  0  0  0  0  0  0  0  0
    7.0148   -3.5940    2.1653 F   0  0  0  0  0  0  0  0  0  0  0  0
    6.7126   -2.3571    0.3014 F   0  0  0  0  0  0  0  0  0  0  0  0
    9.5478   -2.6161    0.9944 O   0  0  0  0  0  0  0  0  0  0  0  0
  1  2  2  0
  1  3  1  0
  3  4  1  0
  4  5  1  0
  5  6  1  0
  6  7  1  0
  7  8  1  0
  8  9  1  0
  9 10  1  0
  9 11  1  0
  9 12  1  0
  8 13  1  0
  8 14  1  0
  7 15  1  0
  7 16  1  0
  6 17  1  0
  6 18  1  0
  5 19  1  0
  5 20  1  0
  4 21  1  0
  4 22  1  0
  3 23  1  0
  3 24  1  0
  1 25  1  0
M  END
$$$$
