
     RDKit          3D

 25 24  0  0  0  0  0  0  0  0999 V2000
   -0.4106   -4.0875   -4.9941 C   0  0  0  0  0  0  0  0  0  0  0  0
   -1.5631   -4.4157   -5.3763 O   0  0  0  0  0  0  0  0  0  0  0  0
   -0.0711   -4.0882   -3.5638 C   0  0  0  0  0  0  0  0  0  0  0  0
    1.0429   -5.1156   -3.2736 C   0  0  0  0  0  0  0  0  0  0  0  0
    1.4631   -4.8809   -1.8770 C   0  0  0  0  0  0  0  0  0  0  0  0
    2.8669   -5.1842   -1.4713 C   0  0  0  0  0  0  0  0  0  0  0  0
    3.1809   -4.8768   -0.0750 C   0  0  0  0  0  0  0  0  0  0  0  0
    4.6304   -4.9516    0.3149 C   0  0  0  0  0  0  0  0  0  0  0  0
    5.0215   -4.4428    1.6364 C   0  0  0  0  0  0  0  0  0  0  0  0
    4.0136   -4.7391    2.5663 F   0  0  0  0  0  0  0  0  0  0  0  0
    4.9393   -3.0345    1.5578 F   0  0  0  0  0  0  0  0  0  0  0  0
    6.2733   -4.6939    2.0781 F   0  0  0  0  0  0  0  0  0  0  0  0
    5.4158   -4.3537   -0.6528 F   0  0  0  0  0  0  0  0  0  0  0  0
    4.9611   -6.3091    0.2747 F   0  0  0  0  0  0  0  0  0  0  0  0
    2.4586   -5.6724    0.7750 F   0  0  0  0  0  0  0  0  0  0  0  0
    2.7670   -3.5492    0.1739 F   0  0  0  0  0  0  0  0  0  0  0  0
    3.0277   -6.5377   -1.7886 F   0  0  0  0  0  0  0  0  0  0  0  0
    3.6503   -4.4287   -2.3754 F   0  0  0  0  0  0  0  0  0  0  0  0
    0.6636   -5.7517   -1.0943 F   0  0  0  0  0  0  0  0  0  0  0  0
    1.0782   -3.6024   -1.4607 F   0  0  0  0  0  0  0  0  0  0  0  0
    0.5182   -6.3458   -3.5142 F   0  0  0  0  0  0  0  0  0  0  0  0
    2.0055   -4.7818   -4.2355 F   0  0  0  0  0  0  0  0  0  0  0  0
    0.4119   -2.8706   -3.1898 F   0  0  0  0  0  0  0  0  0  0  0  0
   -1.1705   -4.4369   -2.8187 F   0  0  0  0  0  0  0  0  0  0  0  0
    0.5248   -3.7275   -5.9495 O   0  0  0  0  0  0  0  0  0  0  0  0
  1  2  2  0
  1  3  1  0
  3  4  1  0
  4  5  1  0
  5  6  1  0
  6  7  1  0
  7  8  1  0
  8  9  1  0
  9 10  1  0
  9 11  1  0
  9 12  1  0
  8 13  1  0
  8 14  1  0
  7 15  1  0
  7 16  1  0
  6 17  1  0
  6 18  1  0
  5 19  1  0
  5 20  1  0
  4 21  1  0
  4 22  1  0
  3 23  1  0
  3 24  1  0
  1 25  1  0
M  END
$$$$
