
     RDKit          3D

  4  3  0  0  0  0  0  0  0  0999 V2000
   14.8032   -3.2904   10.8075 C   0  0  0  0  0  0  0  0  0  0  0  0
   15.9496   -2.3129   10.9924 C   0  0  0  0  0  0  0  0  0  0  0  0
   16.5714   -2.5225   12.6576 Cl  0  0  0  0  0  0  0  0  0  0  0  0
   14.8059   -3.9225    9.1442 Cl  0  0  0  0  0  0  0  0  0  0  0  0
  1  2  1  0
  2  3  1  0
  1  4  1  0
M  END
$$$$
