
     RDKit          3D

  4  3  0  0  0  0  0  0  0  0999 V2000
    0.6939   -8.8888    0.5868 C   0  0  0  0  0  0  0  0  0  0  0  0
    1.5671   -7.8826    1.3141 C   0  0  0  0  0  0  0  0  0  0  0  0
    0.5374   -7.0471    2.5162 Cl  0  0  0  0  0  0  0  0  0  0  0  0
    1.6123   -9.6468   -0.7354 Cl  0  0  0  0  0  0  0  0  0  0  0  0
  1  2  1  0
  2  3  1  0
  1  4  1  0
M  END
$$$$
