
     RDKit          3D

  4  3  0  0  0  0  0  0  0  0999 V2000
    0.5897   -7.4488   11.2562 C   0  0  0  0  0  0  0  0  0  0  0  0
   -0.5107   -7.3475   10.2157 C   0  0  0  0  0  0  0  0  0  0  0  0
   -1.7470   -6.2188   10.8492 Cl  0  0  0  0  0  0  0  0  0  0  0  0
    1.8273   -8.6097   10.7205 Cl  0  0  0  0  0  0  0  0  0  0  0  0
  1  2  1  0
  2  3  1  0
  1  4  1  0
M  END
$$$$
