
     RDKit          3D

  4  3  0  0  0  0  0  0  0  0999 V2000
   -2.1251    3.4945  -24.4722 C   0  0  0  0  0  0  0  0  0  0  0  0
   -1.9727    4.4076  -25.6751 C   0  0  0  0  0  0  0  0  0  0  0  0
   -3.5993    4.6355  -26.3863 Cl  0  0  0  0  0  0  0  0  0  0  0  0
   -0.5225    3.0561  -23.8352 Cl  0  0  0  0  0  0  0  0  0  0  0  0
  1  2  1  0
  2  3  1  0
  1  4  1  0
M  END
$$$$
