
     RDKit          3D

  4  3  0  0  0  0  0  0  0  0999 V2000
   -5.8732  -13.8496   11.4437 C   0  0  0  0  0  0  0  0  0  0  0  0
   -6.3376  -15.2023   11.9521 C   0  0  0  0  0  0  0  0  0  0  0  0
   -5.0673  -15.8306   13.0454 Cl  0  0  0  0  0  0  0  0  0  0  0  0
   -7.1758  -13.0692   10.5161 Cl  0  0  0  0  0  0  0  0  0  0  0  0
  1  2  1  0
  2  3  1  0
  1  4  1  0
M  END
$$$$
