
     RDKit          3D

  4  3  0  0  0  0  0  0  0  0999 V2000
    6.5419   -2.9922    4.8201 C   0  0  0  0  0  0  0  0  0  0  0  0
    7.7325   -3.9444    4.8755 C   0  0  0  0  0  0  0  0  0  0  0  0
    8.6761   -3.5456    3.4223 Cl  0  0  0  0  0  0  0  0  0  0  0  0
    5.2842   -3.7583    5.8118 Cl  0  0  0  0  0  0  0  0  0  0  0  0
  1  2  1  0
  2  3  1  0
  1  4  1  0
M  END
$$$$
