
     RDKit          3D

  4  3  0  0  0  0  0  0  0  0999 V2000
   -0.0353    5.9958  -15.1000 C   0  0  0  0  0  0  0  0  0  0  0  0
   -0.5221    6.6924  -16.3670 C   0  0  0  0  0  0  0  0  0  0  0  0
   -2.2887    6.4962  -16.3195 Cl  0  0  0  0  0  0  0  0  0  0  0  0
    1.7350    5.9689  -15.2324 Cl  0  0  0  0  0  0  0  0  0  0  0  0
  1  2  1  0
  2  3  1  0
  1  4  1  0
M  END
$$$$
