
     RDKit          3D

  4  3  0  0  0  0  0  0  0  0999 V2000
   -4.1745    3.8850    1.6208 C   0  0  0  0  0  0  0  0  0  0  0  0
   -3.5552    5.0874    2.3264 C   0  0  0  0  0  0  0  0  0  0  0  0
   -2.2769    4.3842    3.3427 Cl  0  0  0  0  0  0  0  0  0  0  0  0
   -5.3473    4.5678    0.4762 Cl  0  0  0  0  0  0  0  0  0  0  0  0
  1  2  1  0
  2  3  1  0
  1  4  1  0
M  END
$$$$
