
     RDKit          3D

  4  3  0  0  0  0  0  0  0  0999 V2000
    7.3822    4.6814    9.1437 C   0  0  0  0  0  0  0  0  0  0  0  0
    6.6199    4.1093    7.9526 C   0  0  0  0  0  0  0  0  0  0  0  0
    5.8616    2.6328    8.5902 Cl  0  0  0  0  0  0  0  0  0  0  0  0
    8.0621    6.2175    8.5693 Cl  0  0  0  0  0  0  0  0  0  0  0  0
  1  2  1  0
  2  3  1  0
  1  4  1  0
M  END
$$$$
