
     RDKit          3D

  4  3  0  0  0  0  0  0  0  0999 V2000
  -14.5595    2.4819    5.5289 C   0  0  0  0  0  0  0  0  0  0  0  0
  -14.1175    3.9359    5.6618 C   0  0  0  0  0  0  0  0  0  0  0  0
  -14.2986    4.5971    4.0212 Cl  0  0  0  0  0  0  0  0  0  0  0  0
  -13.5715    1.5842    6.6994 Cl  0  0  0  0  0  0  0  0  0  0  0  0
  1  2  1  0
  2  3  1  0
  1  4  1  0
M  END
$$$$
