
     RDKit          3D

  4  3  0  0  0  0  0  0  0  0999 V2000
  -12.0466   10.2779    5.9421 C   0  0  0  0  0  0  0  0  0  0  0  0
  -10.9485   11.1417    5.3127 C   0  0  0  0  0  0  0  0  0  0  0  0
  -11.2124   12.8284    5.7863 Cl  0  0  0  0  0  0  0  0  0  0  0  0
  -11.7056    8.5904    5.4677 Cl  0  0  0  0  0  0  0  0  0  0  0  0
  1  2  1  0
  2  3  1  0
  1  4  1  0
M  END
$$$$
