
     RDKit          3D

  4  3  0  0  0  0  0  0  0  0999 V2000
    1.6270   13.0273   12.4387 C   0  0  0  0  0  0  0  0  0  0  0  0
    1.3909   11.5239   12.6170 C   0  0  0  0  0  0  0  0  0  0  0  0
   -0.2720   11.1497   12.1336 Cl  0  0  0  0  0  0  0  0  0  0  0  0
    3.3849   13.2463   12.2124 Cl  0  0  0  0  0  0  0  0  0  0  0  0
  1  2  1  0
  2  3  1  0
  1  4  1  0
M  END
$$$$
