
     RDKit          3D

  4  3  0  0  0  0  0  0  0  0999 V2000
   -4.2800   11.3624   13.7641 C   0  0  0  0  0  0  0  0  0  0  0  0
   -5.6158   10.8943   14.3513 C   0  0  0  0  0  0  0  0  0  0  0  0
   -6.8181   12.1742   14.1164 Cl  0  0  0  0  0  0  0  0  0  0  0  0
   -3.2028    9.9382   13.7432 Cl  0  0  0  0  0  0  0  0  0  0  0  0
  1  2  1  0
  2  3  1  0
  1  4  1  0
M  END
$$$$
