
     RDKit          3D

  4  3  0  0  0  0  0  0  0  0999 V2000
   -6.9373    1.4364   -2.7374 C   0  0  0  0  0  0  0  0  0  0  0  0
   -7.0328    2.3935   -3.9303 C   0  0  0  0  0  0  0  0  0  0  0  0
   -8.6836    2.3381   -4.5711 Cl  0  0  0  0  0  0  0  0  0  0  0  0
   -5.2343    1.4558   -2.2003 Cl  0  0  0  0  0  0  0  0  0  0  0  0
  1  2  1  0
  2  3  1  0
  1  4  1  0
M  END
$$$$
