
     RDKit          3D

  4  3  0  0  0  0  0  0  0  0999 V2000
   -8.6045    2.3860   -3.7846 C   0  0  0  0  0  0  0  0  0  0  0  0
   -9.6386    2.1820   -4.8968 C   0  0  0  0  0  0  0  0  0  0  0  0
   -9.2369    3.2547   -6.2484 Cl  0  0  0  0  0  0  0  0  0  0  0  0
   -9.0104    1.2262   -2.4888 Cl  0  0  0  0  0  0  0  0  0  0  0  0
  1  2  1  0
  2  3  1  0
  1  4  1  0
M  END
$$$$
