
     RDKit          3D

 25 24  0  0  0  0  0  0  0  0999 V2000
   -6.3440  -11.0590  -16.8979 C   0  0  0  0  0  0  0  0  0  0  0  0
   -5.8181  -11.8267  -16.0642 O   0  0  0  0  0  0  0  0  0  0  0  0
   -5.8864   -9.6296  -16.9728 C   0  0  0  0  0  0  0  0  0  0  0  0
   -6.1322   -8.9988  -15.5726 C   0  0  0  0  0  0  0  0  0  0  0  0
   -6.0995   -7.5380  -15.7975 C   0  0  0  0  0  0  0  0  0  0  0  0
   -6.1414   -6.6204  -14.6258 C   0  0  0  0  0  0  0  0  0  0  0  0
   -6.2518   -5.1822  -14.9140 C   0  0  0  0  0  0  0  0  0  0  0  0
   -6.3775   -4.2319  -13.7745 C   0  0  0  0  0  0  0  0  0  0  0  0
   -6.1109   -2.7844  -14.0480 C   0  0  0  0  0  0  0  0  0  0  0  0
   -4.7062   -2.6408  -14.0321 F   0  0  0  0  0  0  0  0  0  0  0  0
   -6.6875   -1.9051  -13.1868 F   0  0  0  0  0  0  0  0  0  0  0  0
   -6.4897   -2.4442  -15.3441 F   0  0  0  0  0  0  0  0  0  0  0  0
   -5.5113   -4.6047  -12.7266 F   0  0  0  0  0  0  0  0  0  0  0  0
   -7.6505   -4.3608  -13.1884 F   0  0  0  0  0  0  0  0  0  0  0  0
   -5.1863   -4.8290  -15.7487 F   0  0  0  0  0  0  0  0  0  0  0  0
   -7.3812   -4.9440  -15.7149 F   0  0  0  0  0  0  0  0  0  0  0  0
   -4.8668   -6.7966  -14.0195 F   0  0  0  0  0  0  0  0  0  0  0  0
   -7.0205   -7.0701  -13.6571 F   0  0  0  0  0  0  0  0  0  0  0  0
   -7.1044   -7.1142  -16.6701 F   0  0  0  0  0  0  0  0  0  0  0  0
   -4.8925   -7.2517  -16.4656 F   0  0  0  0  0  0  0  0  0  0  0  0
   -7.4063   -9.5088  -15.2691 F   0  0  0  0  0  0  0  0  0  0  0  0
   -5.1858   -9.4705  -14.7270 F   0  0  0  0  0  0  0  0  0  0  0  0
   -6.7106   -8.9202  -17.8262 F   0  0  0  0  0  0  0  0  0  0  0  0
   -4.5779   -9.5450  -17.3399 F   0  0  0  0  0  0  0  0  0  0  0  0
   -7.3442  -11.4503  -17.7771 O   0  0  0  0  0  0  0  0  0  0  0  0
  1  2  2  0
  1  3  1  0
  3  4  1  0
  4  5  1  0
  5  6  1  0
  6  7  1  0
  7  8  1  0
  8  9  1  0
  9 10  1  0
  9 11  1  0
  9 12  1  0
  8 13  1  0
  8 14  1  0
  7 15  1  0
  7 16  1  0
  6 17  1  0
  6 18  1  0
  5 19  1  0
  5 20  1  0
  4 21  1  0
  4 22  1  0
  3 23  1  0
  3 24  1  0
  1 25  1  0
M  END
$$$$
