
     RDKit          3D

 25 24  0  0  0  0  0  0  0  0999 V2000
   -8.8225    0.1558    0.5354 C   0  0  0  0  0  0  0  0  0  0  0  0
   -9.9752   -0.2059    0.8539 O   0  0  0  0  0  0  0  0  0  0  0  0
   -8.6466    1.3594   -0.3469 C   0  0  0  0  0  0  0  0  0  0  0  0
   -9.3731    1.0516   -1.6872 C   0  0  0  0  0  0  0  0  0  0  0  0
   -8.9623    2.1351   -2.6053 C   0  0  0  0  0  0  0  0  0  0  0  0
   -9.4907    2.1489   -3.9971 C   0  0  0  0  0  0  0  0  0  0  0  0
   -8.8939    3.1236   -4.9230 C   0  0  0  0  0  0  0  0  0  0  0  0
   -8.8551    2.7993   -6.3758 C   0  0  0  0  0  0  0  0  0  0  0  0
   -7.5101    2.6715   -7.0206 C   0  0  0  0  0  0  0  0  0  0  0  0
   -7.7344    2.7944   -8.4094 F   0  0  0  0  0  0  0  0  0  0  0  0
   -6.8318    1.5255   -6.7491 F   0  0  0  0  0  0  0  0  0  0  0  0
   -6.6960    3.7530   -6.6937 F   0  0  0  0  0  0  0  0  0  0  0  0
   -9.5596    3.7713   -7.1147 F   0  0  0  0  0  0  0  0  0  0  0  0
   -9.5934    1.6261   -6.6191 F   0  0  0  0  0  0  0  0  0  0  0  0
   -9.5091    4.3598   -4.6996 F   0  0  0  0  0  0  0  0  0  0  0  0
   -7.5559    3.3602   -4.5654 F   0  0  0  0  0  0  0  0  0  0  0  0
  -10.8458    2.5495   -3.8345 F   0  0  0  0  0  0  0  0  0  0  0  0
   -9.5958    0.8707   -4.5153 F   0  0  0  0  0  0  0  0  0  0  0  0
   -7.5735    2.2450   -2.7066 F   0  0  0  0  0  0  0  0  0  0  0  0
   -9.3820    3.3479   -2.0239 F   0  0  0  0  0  0  0  0  0  0  0  0
   -8.8337   -0.2078   -2.0011 F   0  0  0  0  0  0  0  0  0  0  0  0
  -10.7023    0.9831   -1.4388 F   0  0  0  0  0  0  0  0  0  0  0  0
   -7.3150    1.4934   -0.6929 F   0  0  0  0  0  0  0  0  0  0  0  0
   -9.1359    2.4846    0.2436 F   0  0  0  0  0  0  0  0  0  0  0  0
   -7.6707   -0.4967    0.9529 O   0  0  0  0  0  0  0  0  0  0  0  0
  1  2  2  0
  1  3  1  0
  3  4  1  0
  4  5  1  0
  5  6  1  0
  6  7  1  0
  7  8  1  0
  8  9  1  0
  9 10  1  0
  9 11  1  0
  9 12  1  0
  8 13  1  0
  8 14  1  0
  7 15  1  0
  7 16  1  0
  6 17  1  0
  6 18  1  0
  5 19  1  0
  5 20  1  0
  4 21  1  0
  4 22  1  0
  3 23  1  0
  3 24  1  0
  1 25  1  0
M  END
$$$$
