
     RDKit          3D

 25 24  0  0  0  0  0  0  0  0999 V2000
  -11.4530   -3.8676  -18.2840 C   0  0  0  0  0  0  0  0  0  0  0  0
  -11.2890   -2.7912  -18.8966 O   0  0  0  0  0  0  0  0  0  0  0  0
  -10.5445   -4.2065  -17.1360 C   0  0  0  0  0  0  0  0  0  0  0  0
   -9.7670   -2.9095  -16.7724 C   0  0  0  0  0  0  0  0  0  0  0  0
   -8.8123   -3.3156  -15.7191 C   0  0  0  0  0  0  0  0  0  0  0  0
   -7.9055   -2.2945  -15.1261 C   0  0  0  0  0  0  0  0  0  0  0  0
   -7.1982   -2.6725  -13.8931 C   0  0  0  0  0  0  0  0  0  0  0  0
   -6.5754   -1.6003  -13.0684 C   0  0  0  0  0  0  0  0  0  0  0  0
   -5.5342   -2.0093  -12.0736 C   0  0  0  0  0  0  0  0  0  0  0  0
   -5.2330   -0.8472  -11.3299 F   0  0  0  0  0  0  0  0  0  0  0  0
   -4.3995   -2.5469  -12.5940 F   0  0  0  0  0  0  0  0  0  0  0  0
   -6.0581   -2.9027  -11.1427 F   0  0  0  0  0  0  0  0  0  0  0  0
   -7.5630   -0.9008  -12.3456 F   0  0  0  0  0  0  0  0  0  0  0  0
   -6.0407   -0.6064  -13.9092 F   0  0  0  0  0  0  0  0  0  0  0  0
   -8.0640   -3.4587  -13.1257 F   0  0  0  0  0  0  0  0  0  0  0  0
   -6.1483   -3.5543  -14.1995 F   0  0  0  0  0  0  0  0  0  0  0  0
   -8.7869   -1.2402  -14.7587 F   0  0  0  0  0  0  0  0  0  0  0  0
   -7.0954   -1.7135  -16.0850 F   0  0  0  0  0  0  0  0  0  0  0  0
   -8.0026   -4.3806  -16.1207 F   0  0  0  0  0  0  0  0  0  0  0  0
   -9.5736   -3.8212  -14.6468 F   0  0  0  0  0  0  0  0  0  0  0  0
   -9.1695   -2.6006  -18.0065 F   0  0  0  0  0  0  0  0  0  0  0  0
  -10.6678   -1.9702  -16.3991 F   0  0  0  0  0  0  0  0  0  0  0  0
   -9.5706   -5.0922  -17.5578 F   0  0  0  0  0  0  0  0  0  0  0  0
  -11.2454   -4.6877  -16.0724 F   0  0  0  0  0  0  0  0  0  0  0  0
  -12.4410   -4.7891  -18.6026 O   0  0  0  0  0  0  0  0  0  0  0  0
  1  2  2  0
  1  3  1  0
  3  4  1  0
  4  5  1  0
  5  6  1  0
  6  7  1  0
  7  8  1  0
  8  9  1  0
  9 10  1  0
  9 11  1  0
  9 12  1  0
  8 13  1  0
  8 14  1  0
  7 15  1  0
  7 16  1  0
  6 17  1  0
  6 18  1  0
  5 19  1  0
  5 20  1  0
  4 21  1  0
  4 22  1  0
  3 23  1  0
  3 24  1  0
  1 25  1  0
M  END
$$$$
