
     RDKit          3D

 25 24  0  0  0  0  0  0  0  0999 V2000
   -6.2887   -9.1734  -16.1920 C   0  0  0  0  0  0  0  0  0  0  0  0
   -6.3200   -8.8075  -17.3861 O   0  0  0  0  0  0  0  0  0  0  0  0
   -5.7664   -8.2288  -15.1466 C   0  0  0  0  0  0  0  0  0  0  0  0
   -6.1527   -6.7914  -15.5979 C   0  0  0  0  0  0  0  0  0  0  0  0
   -5.8914   -5.9353  -14.4212 C   0  0  0  0  0  0  0  0  0  0  0  0
   -6.0262   -4.4584  -14.5517 C   0  0  0  0  0  0  0  0  0  0  0  0
   -5.6960   -3.6553  -13.3645 C   0  0  0  0  0  0  0  0  0  0  0  0
   -5.9404   -2.1869  -13.4036 C   0  0  0  0  0  0  0  0  0  0  0  0
   -5.3217   -1.3535  -12.3248 C   0  0  0  0  0  0  0  0  0  0  0  0
   -5.7481   -1.9227  -11.1048 F   0  0  0  0  0  0  0  0  0  0  0  0
   -5.6191   -0.0277  -12.3593 F   0  0  0  0  0  0  0  0  0  0  0  0
   -3.9363   -1.4941  -12.3192 F   0  0  0  0  0  0  0  0  0  0  0  0
   -7.3238   -1.9184  -13.3694 F   0  0  0  0  0  0  0  0  0  0  0  0
   -5.5538   -1.6755  -14.6564 F   0  0  0  0  0  0  0  0  0  0  0  0
   -6.3261   -4.2411  -12.2615 F   0  0  0  0  0  0  0  0  0  0  0  0
   -4.3301   -3.7906  -13.0648 F   0  0  0  0  0  0  0  0  0  0  0  0
   -7.4189   -4.2696  -14.7712 F   0  0  0  0  0  0  0  0  0  0  0  0
   -5.4531   -3.9954  -15.7224 F   0  0  0  0  0  0  0  0  0  0  0  0
   -4.6327   -6.1716  -13.8639 F   0  0  0  0  0  0  0  0  0  0  0  0
   -6.8092   -6.3173  -13.4228 F   0  0  0  0  0  0  0  0  0  0  0  0
   -5.2589   -6.5964  -16.6649 F   0  0  0  0  0  0  0  0  0  0  0  0
   -7.4402   -6.8141  -16.0163 F   0  0  0  0  0  0  0  0  0  0  0  0
   -4.3841   -8.2396  -15.1571 F   0  0  0  0  0  0  0  0  0  0  0  0
   -6.2694   -8.5219  -13.9156 F   0  0  0  0  0  0  0  0  0  0  0  0
   -6.7141  -10.4223  -15.7607 O   0  0  0  0  0  0  0  0  0  0  0  0
  1  2  2  0
  1  3  1  0
  3  4  1  0
  4  5  1  0
  5  6  1  0
  6  7  1  0
  7  8  1  0
  8  9  1  0
  9 10  1  0
  9 11  1  0
  9 12  1  0
  8 13  1  0
  8 14  1  0
  7 15  1  0
  7 16  1  0
  6 17  1  0
  6 18  1  0
  5 19  1  0
  5 20  1  0
  4 21  1  0
  4 22  1  0
  3 23  1  0
  3 24  1  0
  1 25  1  0
M  END
$$$$
