
     RDKit          3D

 25 24  0  0  0  0  0  0  0  0999 V2000
    0.0160  -12.5454   -3.4538 C   0  0  0  0  0  0  0  0  0  0  0  0
    0.5947  -12.3649   -4.5462 O   0  0  0  0  0  0  0  0  0  0  0  0
   -0.4311  -11.3553   -2.6526 C   0  0  0  0  0  0  0  0  0  0  0  0
    0.8515  -10.5867   -2.2247 C   0  0  0  0  0  0  0  0  0  0  0  0
    0.3662   -9.4493   -1.4144 C   0  0  0  0  0  0  0  0  0  0  0  0
    1.3434   -8.6464   -0.6288 C   0  0  0  0  0  0  0  0  0  0  0  0
    0.8966   -7.3220   -0.1709 C   0  0  0  0  0  0  0  0  0  0  0  0
    1.7227   -6.5960    0.8331 C   0  0  0  0  0  0  0  0  0  0  0  0
    1.1938   -6.5078    2.2308 C   0  0  0  0  0  0  0  0  0  0  0  0
    1.2497   -7.8204    2.7484 F   0  0  0  0  0  0  0  0  0  0  0  0
   -0.0612   -6.0014    2.3561 F   0  0  0  0  0  0  0  0  0  0  0  0
    2.0503   -5.7677    3.0419 F   0  0  0  0  0  0  0  0  0  0  0  0
    1.9554   -5.2711    0.4117 F   0  0  0  0  0  0  0  0  0  0  0  0
    3.0180   -7.1452    0.8669 F   0  0  0  0  0  0  0  0  0  0  0  0
    0.6692   -6.5311   -1.3020 F   0  0  0  0  0  0  0  0  0  0  0  0
   -0.3780   -7.4260    0.4111 F   0  0  0  0  0  0  0  0  0  0  0  0
    2.3939   -8.4009   -1.5559 F   0  0  0  0  0  0  0  0  0  0  0  0
    1.9548   -9.4053    0.3528 F   0  0  0  0  0  0  0  0  0  0  0  0
   -0.6442   -9.8252   -0.5263 F   0  0  0  0  0  0  0  0  0  0  0  0
   -0.2477   -8.5440   -2.3024 F   0  0  0  0  0  0  0  0  0  0  0  0
    1.5237  -11.5768   -1.4875 F   0  0  0  0  0  0  0  0  0  0  0  0
    1.5301  -10.2446   -3.3453 F   0  0  0  0  0  0  0  0  0  0  0  0
   -0.9983  -11.7788   -1.4652 F   0  0  0  0  0  0  0  0  0  0  0  0
   -1.2769  -10.5635   -3.3681 F   0  0  0  0  0  0  0  0  0  0  0  0
   -0.2456  -13.8007   -2.9222 O   0  0  0  0  0  0  0  0  0  0  0  0
  1  2  2  0
  1  3  1  0
  3  4  1  0
  4  5  1  0
  5  6  1  0
  6  7  1  0
  7  8  1  0
  8  9  1  0
  9 10  1  0
  9 11  1  0
  9 12  1  0
  8 13  1  0
  8 14  1  0
  7 15  1  0
  7 16  1  0
  6 17  1  0
  6 18  1  0
  5 19  1  0
  5 20  1  0
  4 21  1  0
  4 22  1  0
  3 23  1  0
  3 24  1  0
  1 25  1  0
M  END
$$$$
