
     RDKit          3D

 25 24  0  0  0  0  0  0  0  0999 V2000
  -16.2419  -10.6673  -26.2470 C   0  0  0  0  0  0  0  0  0  0  0  0
  -15.3993  -10.1490  -27.0100 O   0  0  0  0  0  0  0  0  0  0  0  0
  -15.9435  -10.7621  -24.7773 C   0  0  0  0  0  0  0  0  0  0  0  0
  -16.3144   -9.3891  -24.1479 C   0  0  0  0  0  0  0  0  0  0  0  0
  -15.6946   -9.4010  -22.8057 C   0  0  0  0  0  0  0  0  0  0  0  0
  -15.5489   -8.1206  -22.0602 C   0  0  0  0  0  0  0  0  0  0  0  0
  -15.4296   -8.2154  -20.5972 C   0  0  0  0  0  0  0  0  0  0  0  0
  -15.2165   -6.9666  -19.8145 C   0  0  0  0  0  0  0  0  0  0  0  0
  -14.7648   -7.1088  -18.3943 C   0  0  0  0  0  0  0  0  0  0  0  0
  -15.6925   -7.9779  -17.7792 F   0  0  0  0  0  0  0  0  0  0  0  0
  -14.6597   -5.9513  -17.6897 F   0  0  0  0  0  0  0  0  0  0  0  0
  -13.5465   -7.7796  -18.3237 F   0  0  0  0  0  0  0  0  0  0  0  0
  -16.3993   -6.2006  -19.7807 F   0  0  0  0  0  0  0  0  0  0  0  0
  -14.3191   -6.1259  -20.4989 F   0  0  0  0  0  0  0  0  0  0  0  0
  -16.5375   -8.9246  -20.1215 F   0  0  0  0  0  0  0  0  0  0  0  0
  -14.3471   -9.0460  -20.2621 F   0  0  0  0  0  0  0  0  0  0  0  0
  -16.7799   -7.4511  -22.3052 F   0  0  0  0  0  0  0  0  0  0  0  0
  -14.6118   -7.2912  -22.6494 F   0  0  0  0  0  0  0  0  0  0  0  0
  -14.4347  -10.0038  -22.8099 F   0  0  0  0  0  0  0  0  0  0  0  0
  -16.4921  -10.2298  -21.9919 F   0  0  0  0  0  0  0  0  0  0  0  0
  -15.7080   -8.5052  -25.0570 F   0  0  0  0  0  0  0  0  0  0  0  0
  -17.6634   -9.2737  -24.1559 F   0  0  0  0  0  0  0  0  0  0  0  0
  -14.5796  -10.8787  -24.5849 F   0  0  0  0  0  0  0  0  0  0  0  0
  -16.6299  -11.7841  -24.1954 F   0  0  0  0  0  0  0  0  0  0  0  0
  -17.4609  -11.1714  -26.6791 O   0  0  0  0  0  0  0  0  0  0  0  0
  1  2  2  0
  1  3  1  0
  3  4  1  0
  4  5  1  0
  5  6  1  0
  6  7  1  0
  7  8  1  0
  8  9  1  0
  9 10  1  0
  9 11  1  0
  9 12  1  0
  8 13  1  0
  8 14  1  0
  7 15  1  0
  7 16  1  0
  6 17  1  0
  6 18  1  0
  5 19  1  0
  5 20  1  0
  4 21  1  0
  4 22  1  0
  3 23  1  0
  3 24  1  0
  1 25  1  0
M  END
$$$$
