
     RDKit          3D

 25 24  0  0  0  0  0  0  0  0999 V2000
   -7.1194   -4.2595  -14.1551 C   0  0  0  0  0  0  0  0  0  0  0  0
   -7.8843   -4.2231  -15.1423 O   0  0  0  0  0  0  0  0  0  0  0  0
   -6.5680   -2.9748  -13.6040 C   0  0  0  0  0  0  0  0  0  0  0  0
   -7.4066   -2.6237  -12.3420 C   0  0  0  0  0  0  0  0  0  0  0  0
   -6.8262   -1.3629  -11.8329 C   0  0  0  0  0  0  0  0  0  0  0  0
   -7.3548   -0.7762  -10.5707 C   0  0  0  0  0  0  0  0  0  0  0  0
   -6.7078    0.4542  -10.0901 C   0  0  0  0  0  0  0  0  0  0  0  0
   -7.1728    1.0532   -8.8084 C   0  0  0  0  0  0  0  0  0  0  0  0
   -6.5615    2.3543   -8.3907 C   0  0  0  0  0  0  0  0  0  0  0  0
   -7.2151    3.3495   -9.1501 F   0  0  0  0  0  0  0  0  0  0  0  0
   -5.2143    2.4494   -8.5433 F   0  0  0  0  0  0  0  0  0  0  0  0
   -6.8768    2.6508   -7.0672 F   0  0  0  0  0  0  0  0  0  0  0  0
   -6.9633    0.1550   -7.7424 F   0  0  0  0  0  0  0  0  0  0  0  0
   -8.5732    1.1908   -8.8305 F   0  0  0  0  0  0  0  0  0  0  0  0
   -5.3267    0.2332  -10.0704 F   0  0  0  0  0  0  0  0  0  0  0  0
   -6.8575    1.4735  -11.0454 F   0  0  0  0  0  0  0  0  0  0  0  0
   -7.0669   -1.7708   -9.5954 F   0  0  0  0  0  0  0  0  0  0  0  0
   -8.7369   -0.7222  -10.5731 F   0  0  0  0  0  0  0  0  0  0  0  0
   -6.8550   -0.3436  -12.7873 F   0  0  0  0  0  0  0  0  0  0  0  0
   -5.4579   -1.6047  -11.5996 F   0  0  0  0  0  0  0  0  0  0  0  0
   -8.6883   -2.4857  -12.9020 F   0  0  0  0  0  0  0  0  0  0  0  0
   -7.3397   -3.6722  -11.4879 F   0  0  0  0  0  0  0  0  0  0  0  0
   -6.8177   -1.9425  -14.4888 F   0  0  0  0  0  0  0  0  0  0  0  0
   -5.2428   -3.0872  -13.3121 F   0  0  0  0  0  0  0  0  0  0  0  0
   -6.7387   -5.4347  -13.5222 O   0  0  0  0  0  0  0  0  0  0  0  0
  1  2  2  0
  1  3  1  0
  3  4  1  0
  4  5  1  0
  5  6  1  0
  6  7  1  0
  7  8  1  0
  8  9  1  0
  9 10  1  0
  9 11  1  0
  9 12  1  0
  8 13  1  0
  8 14  1  0
  7 15  1  0
  7 16  1  0
  6 17  1  0
  6 18  1  0
  5 19  1  0
  5 20  1  0
  4 21  1  0
  4 22  1  0
  3 23  1  0
  3 24  1  0
  1 25  1  0
M  END
$$$$
