
     RDKit          3D

 25 24  0  0  0  0  0  0  0  0999 V2000
    9.5056   -5.9412    5.5559 C   0  0  0  0  0  0  0  0  0  0  0  0
    8.3861   -5.8169    4.9535 O   0  0  0  0  0  0  0  0  0  0  0  0
   10.5975   -4.9516    5.4149 C   0  0  0  0  0  0  0  0  0  0  0  0
   11.6579   -5.3405    4.4413 C   0  0  0  0  0  0  0  0  0  0  0  0
   12.7189   -4.2439    4.3904 C   0  0  0  0  0  0  0  0  0  0  0  0
   13.7589   -4.7290    3.4224 C   0  0  0  0  0  0  0  0  0  0  0  0
   15.0129   -3.9470    3.3289 C   0  0  0  0  0  0  0  0  0  0  0  0
   16.0334   -4.3906    2.3362 C   0  0  0  0  0  0  0  0  0  0  0  0
   17.2137   -3.4085    2.2882 C   0  0  0  0  0  0  0  0  0  0  0  0
   17.0322   -2.4028    3.2155 F   0  0  0  0  0  0  0  0  0  0  0  0
   18.4072   -4.0283    2.5654 F   0  0  0  0  0  0  0  0  0  0  0  0
   17.3145   -2.8222    1.0465 F   0  0  0  0  0  0  0  0  0  0  0  0
   15.5393   -4.4973    1.0708 F   0  0  0  0  0  0  0  0  0  0  0  0
   16.6405   -5.6043    2.6670 F   0  0  0  0  0  0  0  0  0  0  0  0
   15.6330   -3.8225    4.5805 F   0  0  0  0  0  0  0  0  0  0  0  0
   14.6740   -2.6303    2.9621 F   0  0  0  0  0  0  0  0  0  0  0  0
   14.0383   -6.0817    3.6714 F   0  0  0  0  0  0  0  0  0  0  0  0
   13.1371   -4.7355    2.1604 F   0  0  0  0  0  0  0  0  0  0  0  0
   13.1996   -4.1417    5.6929 F   0  0  0  0  0  0  0  0  0  0  0  0
   12.1355   -3.0701    3.9735 F   0  0  0  0  0  0  0  0  0  0  0  0
   12.3014   -6.5066    4.7514 F   0  0  0  0  0  0  0  0  0  0  0  0
   11.0733   -5.4532    3.2032 F   0  0  0  0  0  0  0  0  0  0  0  0
   11.0565   -4.6548    6.6779 F   0  0  0  0  0  0  0  0  0  0  0  0
   10.0189   -3.7736    4.9415 F   0  0  0  0  0  0  0  0  0  0  0  0
    9.6349   -7.0653    6.3533 O   0  0  0  0  0  0  0  0  0  0  0  0
  1  2  2  0
  1  3  1  0
  3  4  1  0
  4  5  1  0
  5  6  1  0
  6  7  1  0
  7  8  1  0
  8  9  1  0
  9 10  1  0
  9 11  1  0
  9 12  1  0
  8 13  1  0
  8 14  1  0
  7 15  1  0
  7 16  1  0
  6 17  1  0
  6 18  1  0
  5 19  1  0
  5 20  1  0
  4 21  1  0
  4 22  1  0
  3 23  1  0
  3 24  1  0
  1 25  1  0
M  END
$$$$
