
     RDKit          3D

 25 24  0  0  0  0  0  0  0  0999 V2000
   16.9886   -5.9019    5.9794 C   0  0  0  0  0  0  0  0  0  0  0  0
   17.9109   -5.3312    6.6543 O   0  0  0  0  0  0  0  0  0  0  0  0
   16.7013   -5.5493    4.5707 C   0  0  0  0  0  0  0  0  0  0  0  0
   15.9203   -4.2908    4.3988 C   0  0  0  0  0  0  0  0  0  0  0  0
   15.6550   -4.0639    2.9124 C   0  0  0  0  0  0  0  0  0  0  0  0
   14.9795   -2.7263    2.8196 C   0  0  0  0  0  0  0  0  0  0  0  0
   14.7355   -2.1848    1.4631 C   0  0  0  0  0  0  0  0  0  0  0  0
   13.9584   -0.9168    1.3531 C   0  0  0  0  0  0  0  0  0  0  0  0
   13.8165   -0.4872   -0.1151 C   0  0  0  0  0  0  0  0  0  0  0  0
   13.0411   -1.3981   -0.8031 F   0  0  0  0  0  0  0  0  0  0  0  0
   13.2241    0.7459   -0.2328 F   0  0  0  0  0  0  0  0  0  0  0  0
   15.0464   -0.4316   -0.7315 F   0  0  0  0  0  0  0  0  0  0  0  0
   14.5272    0.1207    2.0289 F   0  0  0  0  0  0  0  0  0  0  0  0
   12.6342   -1.0370    1.7806 F   0  0  0  0  0  0  0  0  0  0  0  0
   14.1446   -3.1437    0.6277 F   0  0  0  0  0  0  0  0  0  0  0  0
   15.9861   -1.9157    0.8744 F   0  0  0  0  0  0  0  0  0  0  0  0
   13.7898   -2.7479    3.5637 F   0  0  0  0  0  0  0  0  0  0  0  0
   15.8048   -1.8286    3.5211 F   0  0  0  0  0  0  0  0  0  0  0  0
   14.8277   -5.1146    2.5257 F   0  0  0  0  0  0  0  0  0  0  0  0
   16.8503   -4.0851    2.2321 F   0  0  0  0  0  0  0  0  0  0  0  0
   14.7052   -4.2964    5.0263 F   0  0  0  0  0  0  0  0  0  0  0  0
   16.6812   -3.2529    4.8795 F   0  0  0  0  0  0  0  0  0  0  0  0
   16.1486   -6.6565    3.9685 F   0  0  0  0  0  0  0  0  0  0  0  0
   17.9315   -5.3571    3.9414 F   0  0  0  0  0  0  0  0  0  0  0  0
   16.2704   -6.8760    6.6514 O   0  0  0  0  0  0  0  0  0  0  0  0
  1  2  2  0
  1  3  1  0
  3  4  1  0
  4  5  1  0
  5  6  1  0
  6  7  1  0
  7  8  1  0
  8  9  1  0
  9 10  1  0
  9 11  1  0
  9 12  1  0
  8 13  1  0
  8 14  1  0
  7 15  1  0
  7 16  1  0
  6 17  1  0
  6 18  1  0
  5 19  1  0
  5 20  1  0
  4 21  1  0
  4 22  1  0
  3 23  1  0
  3 24  1  0
  1 25  1  0
M  END
$$$$
