
     RDKit          3D

 25 24  0  0  0  0  0  0  0  0999 V2000
    6.0245  -11.7147  -13.2472 C   0  0  0  0  0  0  0  0  0  0  0  0
    6.8364  -11.3314  -14.1558 O   0  0  0  0  0  0  0  0  0  0  0  0
    6.0262  -11.1356  -11.8848 C   0  0  0  0  0  0  0  0  0  0  0  0
    6.7576  -11.9493  -10.8717 C   0  0  0  0  0  0  0  0  0  0  0  0
    6.6641  -11.2605   -9.5124 C   0  0  0  0  0  0  0  0  0  0  0  0
    7.2457  -12.2300   -8.5245 C   0  0  0  0  0  0  0  0  0  0  0  0
    8.0747  -11.6683   -7.4337 C   0  0  0  0  0  0  0  0  0  0  0  0
    8.6457  -12.6197   -6.4375 C   0  0  0  0  0  0  0  0  0  0  0  0
    9.7770  -11.9590   -5.6352 C   0  0  0  0  0  0  0  0  0  0  0  0
   10.1283  -12.7565   -4.5652 F   0  0  0  0  0  0  0  0  0  0  0  0
   10.8996  -11.7609   -6.4008 F   0  0  0  0  0  0  0  0  0  0  0  0
    9.3781  -10.7390   -5.1371 F   0  0  0  0  0  0  0  0  0  0  0  0
    9.1538  -13.7494   -7.0054 F   0  0  0  0  0  0  0  0  0  0  0  0
    7.7357  -13.0041   -5.4501 F   0  0  0  0  0  0  0  0  0  0  0  0
    7.3939  -10.6552   -6.7431 F   0  0  0  0  0  0  0  0  0  0  0  0
    9.1809  -11.0238   -8.0203 F   0  0  0  0  0  0  0  0  0  0  0  0
    6.2242  -13.0383   -8.0020 F   0  0  0  0  0  0  0  0  0  0  0  0
    8.0341  -13.1198   -9.2768 F   0  0  0  0  0  0  0  0  0  0  0  0
    5.3052  -11.0348   -9.3113 F   0  0  0  0  0  0  0  0  0  0  0  0
    7.3715  -10.0816   -9.5540 F   0  0  0  0  0  0  0  0  0  0  0  0
    6.2685  -13.2165  -10.7132 F   0  0  0  0  0  0  0  0  0  0  0  0
    8.0766  -12.0097  -11.2513 F   0  0  0  0  0  0  0  0  0  0  0  0
    4.7227  -10.8421  -11.5552 F   0  0  0  0  0  0  0  0  0  0  0  0
    6.6767   -9.9042  -11.9682 F   0  0  0  0  0  0  0  0  0  0  0  0
    5.1377  -12.7109  -13.6180 O   0  0  0  0  0  0  0  0  0  0  0  0
  1  2  2  0
  1  3  1  0
  3  4  1  0
  4  5  1  0
  5  6  1  0
  6  7  1  0
  7  8  1  0
  8  9  1  0
  9 10  1  0
  9 11  1  0
  9 12  1  0
  8 13  1  0
  8 14  1  0
  7 15  1  0
  7 16  1  0
  6 17  1  0
  6 18  1  0
  5 19  1  0
  5 20  1  0
  4 21  1  0
  4 22  1  0
  3 23  1  0
  3 24  1  0
  1 25  1  0
M  END
$$$$
