
     RDKit          3D

 25 24  0  0  0  0  0  0  0  0999 V2000
    3.7232  -13.1196    5.0723 C   0  0  0  0  0  0  0  0  0  0  0  0
    3.3252  -12.0271    5.6011 O   0  0  0  0  0  0  0  0  0  0  0  0
    2.9040  -13.8748    4.0976 C   0  0  0  0  0  0  0  0  0  0  0  0
    1.5763  -13.2624    3.8051 C   0  0  0  0  0  0  0  0  0  0  0  0
    1.7685  -12.0697    2.8715 C   0  0  0  0  0  0  0  0  0  0  0  0
    0.5527  -11.2086    3.0564 C   0  0  0  0  0  0  0  0  0  0  0  0
    0.5660   -9.8735    2.4159 C   0  0  0  0  0  0  0  0  0  0  0  0
   -0.6448   -9.0175    2.5739 C   0  0  0  0  0  0  0  0  0  0  0  0
   -0.3716   -7.5870    2.0848 C   0  0  0  0  0  0  0  0  0  0  0  0
   -1.4903   -6.8005    2.2702 F   0  0  0  0  0  0  0  0  0  0  0  0
    0.6711   -7.0046    2.7623 F   0  0  0  0  0  0  0  0  0  0  0  0
   -0.0683   -7.5767    0.7418 F   0  0  0  0  0  0  0  0  0  0  0  0
   -1.0766   -8.9326    3.8634 F   0  0  0  0  0  0  0  0  0  0  0  0
   -1.7216   -9.4255    1.7834 F   0  0  0  0  0  0  0  0  0  0  0  0
    0.8731   -9.9638    1.0505 F   0  0  0  0  0  0  0  0  0  0  0  0
    1.6273   -9.1367    2.9759 F   0  0  0  0  0  0  0  0  0  0  0  0
   -0.5931  -11.9257    2.6788 F   0  0  0  0  0  0  0  0  0  0  0  0
    0.4078  -11.0402    4.4456 F   0  0  0  0  0  0  0  0  0  0  0  0
    1.8532  -12.6171    1.5943 F   0  0  0  0  0  0  0  0  0  0  0  0
    2.9246  -11.4087    3.2156 F   0  0  0  0  0  0  0  0  0  0  0  0
    0.6916  -14.1092    3.1964 F   0  0  0  0  0  0  0  0  0  0  0  0
    1.0455  -12.8186    4.9920 F   0  0  0  0  0  0  0  0  0  0  0  0
    2.8535  -15.1833    4.5211 F   0  0  0  0  0  0  0  0  0  0  0  0
    3.6176  -13.8975    2.8990 F   0  0  0  0  0  0  0  0  0  0  0  0
    4.9755  -13.5558    5.4696 O   0  0  0  0  0  0  0  0  0  0  0  0
  1  2  2  0
  1  3  1  0
  3  4  1  0
  4  5  1  0
  5  6  1  0
  6  7  1  0
  7  8  1  0
  8  9  1  0
  9 10  1  0
  9 11  1  0
  9 12  1  0
  8 13  1  0
  8 14  1  0
  7 15  1  0
  7 16  1  0
  6 17  1  0
  6 18  1  0
  5 19  1  0
  5 20  1  0
  4 21  1  0
  4 22  1  0
  3 23  1  0
  3 24  1  0
  1 25  1  0
M  END
$$$$
