
     RDKit          3D

 25 24  0  0  0  0  0  0  0  0999 V2000
   11.5519  -15.8217   -2.0022 C   0  0  0  0  0  0  0  0  0  0  0  0
   10.4454  -15.7402   -1.3692 O   0  0  0  0  0  0  0  0  0  0  0  0
   12.7535  -15.0546   -1.6034 C   0  0  0  0  0  0  0  0  0  0  0  0
   12.5823  -13.5741   -1.6529 C   0  0  0  0  0  0  0  0  0  0  0  0
   13.9278  -12.9041   -1.3852 C   0  0  0  0  0  0  0  0  0  0  0  0
   13.6632  -11.4271   -1.4328 C   0  0  0  0  0  0  0  0  0  0  0  0
   14.8032  -10.5263   -1.1474 C   0  0  0  0  0  0  0  0  0  0  0  0
   14.5188   -9.0680   -1.0207 C   0  0  0  0  0  0  0  0  0  0  0  0
   15.8192   -8.2701   -0.8404 C   0  0  0  0  0  0  0  0  0  0  0  0
   16.5260   -8.2407   -2.0253 F   0  0  0  0  0  0  0  0  0  0  0  0
   15.5757   -6.9729   -0.4616 F   0  0  0  0  0  0  0  0  0  0  0  0
   16.6234   -8.8509    0.1144 F   0  0  0  0  0  0  0  0  0  0  0  0
   13.7075   -8.7697    0.0326 F   0  0  0  0  0  0  0  0  0  0  0  0
   13.9574   -8.5087   -2.1708 F   0  0  0  0  0  0  0  0  0  0  0  0
   15.8380  -10.6995   -2.0779 F   0  0  0  0  0  0  0  0  0  0  0  0
   15.3602  -10.9129    0.0869 F   0  0  0  0  0  0  0  0  0  0  0  0
   13.0674  -11.0956   -2.6596 F   0  0  0  0  0  0  0  0  0  0  0  0
   12.6510  -11.1866   -0.4857 F   0  0  0  0  0  0  0  0  0  0  0  0
   14.7608  -13.3368   -2.4133 F   0  0  0  0  0  0  0  0  0  0  0  0
   14.3944  -13.3040   -0.1546 F   0  0  0  0  0  0  0  0  0  0  0  0
   12.1323  -13.1030   -2.8553 F   0  0  0  0  0  0  0  0  0  0  0  0
   11.7014  -13.2177   -0.6607 F   0  0  0  0  0  0  0  0  0  0  0  0
   13.8164  -15.5358   -2.3332 F   0  0  0  0  0  0  0  0  0  0  0  0
   13.0281  -15.3910   -0.2775 F   0  0  0  0  0  0  0  0  0  0  0  0
   11.5574  -16.6770   -3.0907 O   0  0  0  0  0  0  0  0  0  0  0  0
  1  2  2  0
  1  3  1  0
  3  4  1  0
  4  5  1  0
  5  6  1  0
  6  7  1  0
  7  8  1  0
  8  9  1  0
  9 10  1  0
  9 11  1  0
  9 12  1  0
  8 13  1  0
  8 14  1  0
  7 15  1  0
  7 16  1  0
  6 17  1  0
  6 18  1  0
  5 19  1  0
  5 20  1  0
  4 21  1  0
  4 22  1  0
  3 23  1  0
  3 24  1  0
  1 25  1  0
M  END
$$$$
