
     RDKit          3D

 25 24  0  0  0  0  0  0  0  0999 V2000
   14.8528  -14.0098  -10.2096 C   0  0  0  0  0  0  0  0  0  0  0  0
   15.4291  -15.1485  -10.2625 O   0  0  0  0  0  0  0  0  0  0  0  0
   15.1790  -13.0018   -9.1758 C   0  0  0  0  0  0  0  0  0  0  0  0
   15.8844  -11.7948   -9.6948 C   0  0  0  0  0  0  0  0  0  0  0  0
   16.1339  -10.8251   -8.5422 C   0  0  0  0  0  0  0  0  0  0  0  0
   16.8293   -9.6415   -9.1500 C   0  0  0  0  0  0  0  0  0  0  0  0
   17.2990   -8.5848   -8.2251 C   0  0  0  0  0  0  0  0  0  0  0  0
   17.9382   -7.3766   -8.8212 C   0  0  0  0  0  0  0  0  0  0  0  0
   18.4977   -6.4562   -7.7258 C   0  0  0  0  0  0  0  0  0  0  0  0
   19.4084   -7.1427   -6.9488 F   0  0  0  0  0  0  0  0  0  0  0  0
   19.1342   -5.3601   -8.2537 F   0  0  0  0  0  0  0  0  0  0  0  0
   17.4917   -6.0096   -6.8986 F   0  0  0  0  0  0  0  0  0  0  0  0
   17.0816   -6.6357   -9.5788 F   0  0  0  0  0  0  0  0  0  0  0  0
   19.0614   -7.6678   -9.5987 F   0  0  0  0  0  0  0  0  0  0  0  0
   18.1571   -9.1059   -7.2460 F   0  0  0  0  0  0  0  0  0  0  0  0
   16.1827   -8.1097   -7.5100 F   0  0  0  0  0  0  0  0  0  0  0  0
   17.8799  -10.0832   -9.9691 F   0  0  0  0  0  0  0  0  0  0  0  0
   15.9090   -9.0751  -10.0508 F   0  0  0  0  0  0  0  0  0  0  0  0
   16.9394  -11.5233   -7.6469 F   0  0  0  0  0  0  0  0  0  0  0  0
   14.9297  -10.4790   -7.9746 F   0  0  0  0  0  0  0  0  0  0  0  0
   17.0985  -12.0590  -10.2660 F   0  0  0  0  0  0  0  0  0  0  0  0
   15.0643  -11.1905  -10.6165 F   0  0  0  0  0  0  0  0  0  0  0  0
   15.8279  -13.6513   -8.1506 F   0  0  0  0  0  0  0  0  0  0  0  0
   13.9681  -12.5678   -8.6357 F   0  0  0  0  0  0  0  0  0  0  0  0
   13.8985  -13.7758  -11.1848 O   0  0  0  0  0  0  0  0  0  0  0  0
  1  2  2  0
  1  3  1  0
  3  4  1  0
  4  5  1  0
  5  6  1  0
  6  7  1  0
  7  8  1  0
  8  9  1  0
  9 10  1  0
  9 11  1  0
  9 12  1  0
  8 13  1  0
  8 14  1  0
  7 15  1  0
  7 16  1  0
  6 17  1  0
  6 18  1  0
  5 19  1  0
  5 20  1  0
  4 21  1  0
  4 22  1  0
  3 23  1  0
  3 24  1  0
  1 25  1  0
M  END
$$$$
