
     RDKit          3D

 25 24  0  0  0  0  0  0  0  0999 V2000
    6.5287  -15.0476  -14.2266 C   0  0  0  0  0  0  0  0  0  0  0  0
    7.5653  -15.7932  -14.2594 O   0  0  0  0  0  0  0  0  0  0  0  0
    6.5319  -13.7104  -13.5917 C   0  0  0  0  0  0  0  0  0  0  0  0
    6.3534  -13.7321  -12.1114 C   0  0  0  0  0  0  0  0  0  0  0  0
    6.4901  -12.3116  -11.5686 C   0  0  0  0  0  0  0  0  0  0  0  0
    6.5612  -12.4521  -10.0756 C   0  0  0  0  0  0  0  0  0  0  0  0
    7.0380  -11.2789   -9.3080 C   0  0  0  0  0  0  0  0  0  0  0  0
    7.2742  -11.4570   -7.8465 C   0  0  0  0  0  0  0  0  0  0  0  0
    8.2085  -10.3640   -7.3056 C   0  0  0  0  0  0  0  0  0  0  0  0
    9.4770  -10.5246   -7.8247 F   0  0  0  0  0  0  0  0  0  0  0  0
    7.7717   -9.1057   -7.6393 F   0  0  0  0  0  0  0  0  0  0  0  0
    8.3037  -10.4340   -5.9338 F   0  0  0  0  0  0  0  0  0  0  0  0
    7.8319  -12.6610   -7.5365 F   0  0  0  0  0  0  0  0  0  0  0  0
    6.1209  -11.3030   -7.0737 F   0  0  0  0  0  0  0  0  0  0  0  0
    6.1982  -10.1710   -9.4922 F   0  0  0  0  0  0  0  0  0  0  0  0
    8.2777  -10.8850   -9.8475 F   0  0  0  0  0  0  0  0  0  0  0  0
    5.3219  -12.8921   -9.5853 F   0  0  0  0  0  0  0  0  0  0  0  0
    7.4283  -13.5327   -9.8314 F   0  0  0  0  0  0  0  0  0  0  0  0
    5.3432  -11.6472  -11.9944 F   0  0  0  0  0  0  0  0  0  0  0  0
    7.6280  -11.7380  -12.0864 F   0  0  0  0  0  0  0  0  0  0  0  0
    5.1362  -14.2021  -11.7017 F   0  0  0  0  0  0  0  0  0  0  0  0
    7.3507  -14.5115  -11.5774 F   0  0  0  0  0  0  0  0  0  0  0  0
    5.6271  -12.9253  -14.2691 F   0  0  0  0  0  0  0  0  0  0  0  0
    7.7813  -13.1437  -13.8453 F   0  0  0  0  0  0  0  0  0  0  0  0
    5.3955  -15.5710  -14.8253 O   0  0  0  0  0  0  0  0  0  0  0  0
  1  2  2  0
  1  3  1  0
  3  4  1  0
  4  5  1  0
  5  6  1  0
  6  7  1  0
  7  8  1  0
  8  9  1  0
  9 10  1  0
  9 11  1  0
  9 12  1  0
  8 13  1  0
  8 14  1  0
  7 15  1  0
  7 16  1  0
  6 17  1  0
  6 18  1  0
  5 19  1  0
  5 20  1  0
  4 21  1  0
  4 22  1  0
  3 23  1  0
  3 24  1  0
  1 25  1  0
M  END
$$$$
