
     RDKit          3D

 29 28  0  0  0  0  0  0  0  0999 V2000
   -5.9985    4.9031    7.1260 C   0  0  0  0  0  0  0  0  0  0  0  0
   -6.6481    5.9154    7.9701 C   0  0  0  0  0  0  0  0  0  0  0  0
   -7.2546    5.5051    9.2614 C   0  0  0  0  0  0  0  0  0  0  0  0
   -7.8017    6.5255   10.1772 C   0  0  0  0  0  0  0  0  0  0  0  0
   -8.5153    6.0497   11.4034 C   0  0  0  0  0  0  0  0  0  0  0  0
   -7.7613    5.4670   12.3727 F   0  0  0  0  0  0  0  0  0  0  0  0
   -9.4720    5.0846   11.0224 F   0  0  0  0  0  0  0  0  0  0  0  0
   -9.5060    7.3923   12.0918 S   0  0  0  0  0  0  0  0  0  0  0  0
   -8.6380    8.5828   12.3195 O   0  0  0  0  0  0  0  0  0  0  0  0
  -10.0989    6.9808   13.3965 O   0  0  0  0  0  0  0  0  0  0  0  0
  -10.7348    7.8274   11.0388 O   0  0  0  0  0  0  0  0  0  0  0  0
   -6.9049    7.4991   10.5921 F   0  0  0  0  0  0  0  0  0  0  0  0
   -8.7531    7.2549    9.4050 F   0  0  0  0  0  0  0  0  0  0  0  0
   -6.2994    4.7433    9.9986 F   0  0  0  0  0  0  0  0  0  0  0  0
   -8.2269    4.5203    8.9772 F   0  0  0  0  0  0  0  0  0  0  0  0
   -5.7309    6.9506    8.3222 F   0  0  0  0  0  0  0  0  0  0  0  0
   -7.5791    6.5852    7.1500 F   0  0  0  0  0  0  0  0  0  0  0  0
   -5.2294    5.3156    5.9324 C   0  0  0  0  0  0  0  0  0  0  0  0
   -4.6320    4.2753    5.0664 C   0  0  0  0  0  0  0  0  0  0  0  0
   -5.6358    4.0857    3.9054 C   0  0  0  0  0  0  0  0  0  0  0  0
   -6.0890    2.7843    4.0128 F   0  0  0  0  0  0  0  0  0  0  0  0
   -4.9198    4.2901    2.7470 F   0  0  0  0  0  0  0  0  0  0  0  0
   -6.6470    5.0121    4.0562 F   0  0  0  0  0  0  0  0  0  0  0  0
   -3.4382    4.6820    4.4752 F   0  0  0  0  0  0  0  0  0  0  0  0
   -4.4303    3.0397    5.5596 F   0  0  0  0  0  0  0  0  0  0  0  0
   -5.8832    6.2218    5.1029 F   0  0  0  0  0  0  0  0  0  0  0  0
   -4.1294    6.0646    6.4160 F   0  0  0  0  0  0  0  0  0  0  0  0
   -6.9405    3.9509    6.6711 F   0  0  0  0  0  0  0  0  0  0  0  0
   -5.1281    4.1344    7.9105 F   0  0  0  0  0  0  0  0  0  0  0  0
  1  2  1  0
  2  3  1  0
  3  4  1  0
  4  5  1  0
  5  6  1  0
  5  7  1  0
  5  8  1  0
  8  9  2  0
  8 10  2  0
  8 11  1  0
  4 12  1  0
  4 13  1  0
  3 14  1  0
  3 15  1  0
  2 16  1  0
  2 17  1  0
  1 18  1  0
 18 19  1  0
 19 20  1  0
 20 21  1  0
 20 22  1  0
 20 23  1  0
 19 24  1  0
 19 25  1  0
 18 26  1  0
 18 27  1  0
  1 28  1  0
  1 29  1  0
M  END
$$$$
