
     RDKit          3D

 29 28  0  0  0  0  0  0  0  0999 V2000
   -8.0289    6.2434    7.0402 C   0  0  0  0  0  0  0  0  0  0  0  0
   -8.2203    7.0205    8.2725 C   0  0  0  0  0  0  0  0  0  0  0  0
   -9.5956    7.2469    8.7833 C   0  0  0  0  0  0  0  0  0  0  0  0
   -9.7989    7.9009   10.0910 C   0  0  0  0  0  0  0  0  0  0  0  0
  -11.1907    8.3133   10.4544 C   0  0  0  0  0  0  0  0  0  0  0  0
  -12.1719    7.3848   10.3034 F   0  0  0  0  0  0  0  0  0  0  0  0
  -11.5628    9.4073    9.6441 F   0  0  0  0  0  0  0  0  0  0  0  0
  -11.2091    8.9889   12.1280 S   0  0  0  0  0  0  0  0  0  0  0  0
  -12.5418    9.5985   12.4021 O   0  0  0  0  0  0  0  0  0  0  0  0
  -10.1660   10.0447   12.2708 O   0  0  0  0  0  0  0  0  0  0  0  0
  -10.9355    7.7845   13.2605 O   0  0  0  0  0  0  0  0  0  0  0  0
   -9.2877    7.2200   11.1862 F   0  0  0  0  0  0  0  0  0  0  0  0
   -9.0165    9.0922   10.0432 F   0  0  0  0  0  0  0  0  0  0  0  0
  -10.2847    5.9980    8.8231 F   0  0  0  0  0  0  0  0  0  0  0  0
  -10.3154    7.9226    7.7727 F   0  0  0  0  0  0  0  0  0  0  0  0
   -7.5301    6.4187    9.3672 F   0  0  0  0  0  0  0  0  0  0  0  0
   -7.5276    8.2354    8.0932 F   0  0  0  0  0  0  0  0  0  0  0  0
   -6.6647    5.9775    6.5355 C   0  0  0  0  0  0  0  0  0  0  0  0
   -6.4942    5.1307    5.3343 C   0  0  0  0  0  0  0  0  0  0  0  0
   -4.9949    5.2369    4.9704 C   0  0  0  0  0  0  0  0  0  0  0  0
   -4.8117    6.5298    4.5170 F   0  0  0  0  0  0  0  0  0  0  0  0
   -4.7777    4.3057    3.9794 F   0  0  0  0  0  0  0  0  0  0  0  0
   -4.2574    4.9644    6.1041 F   0  0  0  0  0  0  0  0  0  0  0  0
   -6.7308    3.7810    5.5844 F   0  0  0  0  0  0  0  0  0  0  0  0
   -7.1517    5.4465    4.2036 F   0  0  0  0  0  0  0  0  0  0  0  0
   -5.8775    7.1115    6.3598 F   0  0  0  0  0  0  0  0  0  0  0  0
   -5.9936    5.2827    7.5708 F   0  0  0  0  0  0  0  0  0  0  0  0
   -8.7338    6.8304    5.9633 F   0  0  0  0  0  0  0  0  0  0  0  0
   -8.6493    4.9944    7.1785 F   0  0  0  0  0  0  0  0  0  0  0  0
  1  2  1  0
  2  3  1  0
  3  4  1  0
  4  5  1  0
  5  6  1  0
  5  7  1  0
  5  8  1  0
  8  9  2  0
  8 10  2  0
  8 11  1  0
  4 12  1  0
  4 13  1  0
  3 14  1  0
  3 15  1  0
  2 16  1  0
  2 17  1  0
  1 18  1  0
 18 19  1  0
 19 20  1  0
 20 21  1  0
 20 22  1  0
 20 23  1  0
 19 24  1  0
 19 25  1  0
 18 26  1  0
 18 27  1  0
  1 28  1  0
  1 29  1  0
M  END
$$$$
