
     RDKit          3D

 29 28  0  0  0  0  0  0  0  0999 V2000
   13.6134   -4.0110    6.2004 C   0  0  0  0  0  0  0  0  0  0  0  0
   14.7992   -4.7256    6.6929 C   0  0  0  0  0  0  0  0  0  0  0  0
   15.2425   -5.9620    6.0013 C   0  0  0  0  0  0  0  0  0  0  0  0
   16.4463   -6.6776    6.4681 C   0  0  0  0  0  0  0  0  0  0  0  0
   16.7886   -7.9730    5.8017 C   0  0  0  0  0  0  0  0  0  0  0  0
   16.7997   -7.9870    4.4425 F   0  0  0  0  0  0  0  0  0  0  0  0
   15.8429   -8.9448    6.1927 F   0  0  0  0  0  0  0  0  0  0  0  0
   18.3495   -8.6011    6.4552 S   0  0  0  0  0  0  0  0  0  0  0  0
   18.5553  -10.0015    5.9872 O   0  0  0  0  0  0  0  0  0  0  0  0
   18.3245   -8.5978    7.9459 O   0  0  0  0  0  0  0  0  0  0  0  0
   19.6370   -7.6707    5.9217 O   0  0  0  0  0  0  0  0  0  0  0  0
   17.6128   -5.9275    6.5012 F   0  0  0  0  0  0  0  0  0  0  0  0
   16.2007   -6.9741    7.8412 F   0  0  0  0  0  0  0  0  0  0  0  0
   15.4320   -5.6738    4.6166 F   0  0  0  0  0  0  0  0  0  0  0  0
   14.1342   -6.8366    5.9479 F   0  0  0  0  0  0  0  0  0  0  0  0
   15.9480   -3.8789    6.6768 F   0  0  0  0  0  0  0  0  0  0  0  0
   14.5914   -4.9481    8.0695 F   0  0  0  0  0  0  0  0  0  0  0  0
   13.1532   -2.7813    6.8802 C   0  0  0  0  0  0  0  0  0  0  0  0
   12.1419   -1.9283    6.2179 C   0  0  0  0  0  0  0  0  0  0  0  0
   11.6318   -0.9706    7.3197 C   0  0  0  0  0  0  0  0  0  0  0  0
   12.7515   -0.3061    7.7841 F   0  0  0  0  0  0  0  0  0  0  0  0
   11.0671   -1.7713    8.2874 F   0  0  0  0  0  0  0  0  0  0  0  0
   10.7075   -0.1175    6.7530 F   0  0  0  0  0  0  0  0  0  0  0  0
   12.6848   -1.1140    5.2267 F   0  0  0  0  0  0  0  0  0  0  0  0
   11.0335   -2.4932    5.7050 F   0  0  0  0  0  0  0  0  0  0  0  0
   12.7450   -2.9625    8.1983 F   0  0  0  0  0  0  0  0  0  0  0  0
   14.2967   -1.9568    7.0127 F   0  0  0  0  0  0  0  0  0  0  0  0
   12.4924   -4.8726    6.1552 F   0  0  0  0  0  0  0  0  0  0  0  0
   13.8030   -3.6708    4.8541 F   0  0  0  0  0  0  0  0  0  0  0  0
  1  2  1  0
  2  3  1  0
  3  4  1  0
  4  5  1  0
  5  6  1  0
  5  7  1  0
  5  8  1  0
  8  9  2  0
  8 10  2  0
  8 11  1  0
  4 12  1  0
  4 13  1  0
  3 14  1  0
  3 15  1  0
  2 16  1  0
  2 17  1  0
  1 18  1  0
 18 19  1  0
 19 20  1  0
 20 21  1  0
 20 22  1  0
 20 23  1  0
 19 24  1  0
 19 25  1  0
 18 26  1  0
 18 27  1  0
  1 28  1  0
  1 29  1  0
M  END
$$$$
