
     RDKit          3D

 29 28  0  0  0  0  0  0  0  0999 V2000
  -17.3955    1.1629  -15.1865 C   0  0  0  0  0  0  0  0  0  0  0  0
  -17.3808    0.6302  -16.5559 C   0  0  0  0  0  0  0  0  0  0  0  0
  -17.4718   -0.8364  -16.7667 C   0  0  0  0  0  0  0  0  0  0  0  0
  -17.5145   -1.3838  -18.1370 C   0  0  0  0  0  0  0  0  0  0  0  0
  -17.7000   -2.8607  -18.2914 C   0  0  0  0  0  0  0  0  0  0  0  0
  -18.8692   -3.3889  -17.8421 F   0  0  0  0  0  0  0  0  0  0  0  0
  -16.6761   -3.5206  -17.5787 F   0  0  0  0  0  0  0  0  0  0  0  0
  -17.4076   -3.3358  -20.0079 S   0  0  0  0  0  0  0  0  0  0  0  0
  -18.3029   -2.5457  -20.9006 O   0  0  0  0  0  0  0  0  0  0  0  0
  -17.7033   -4.7843  -20.2009 O   0  0  0  0  0  0  0  0  0  0  0  0
  -15.8196   -3.0321  -20.4487 O   0  0  0  0  0  0  0  0  0  0  0  0
  -18.4204   -0.7778  -18.9952 F   0  0  0  0  0  0  0  0  0  0  0  0
  -16.2478   -1.0666  -18.7101 F   0  0  0  0  0  0  0  0  0  0  0  0
  -18.6188   -1.3316  -16.0773 F   0  0  0  0  0  0  0  0  0  0  0  0
  -16.4290   -1.4352  -16.0249 F   0  0  0  0  0  0  0  0  0  0  0  0
  -18.4582    1.1662  -17.3232 F   0  0  0  0  0  0  0  0  0  0  0  0
  -16.2436    1.1748  -17.1868 F   0  0  0  0  0  0  0  0  0  0  0  0
  -17.3530    2.6231  -14.9584 C   0  0  0  0  0  0  0  0  0  0  0  0
  -17.4945    3.1405  -13.5796 C   0  0  0  0  0  0  0  0  0  0  0  0
  -17.5157    4.6802  -13.7222 C   0  0  0  0  0  0  0  0  0  0  0  0
  -17.3625    5.1758  -12.4409 F   0  0  0  0  0  0  0  0  0  0  0  0
  -18.7458    4.9955  -14.2550 F   0  0  0  0  0  0  0  0  0  0  0  0
  -16.4823    5.0483  -14.5588 F   0  0  0  0  0  0  0  0  0  0  0  0
  -18.7100    2.7955  -12.9931 F   0  0  0  0  0  0  0  0  0  0  0  0
  -16.5309    2.8863  -12.6754 F   0  0  0  0  0  0  0  0  0  0  0  0
  -16.2654    3.2714  -15.5359 F   0  0  0  0  0  0  0  0  0  0  0  0
  -18.4553    3.1613  -15.6657 F   0  0  0  0  0  0  0  0  0  0  0  0
  -16.3330    0.6200  -14.4265 F   0  0  0  0  0  0  0  0  0  0  0  0
  -18.5333    0.6915  -14.5178 F   0  0  0  0  0  0  0  0  0  0  0  0
  1  2  1  0
  2  3  1  0
  3  4  1  0
  4  5  1  0
  5  6  1  0
  5  7  1  0
  5  8  1  0
  8  9  2  0
  8 10  2  0
  8 11  1  0
  4 12  1  0
  4 13  1  0
  3 14  1  0
  3 15  1  0
  2 16  1  0
  2 17  1  0
  1 18  1  0
 18 19  1  0
 19 20  1  0
 20 21  1  0
 20 22  1  0
 20 23  1  0
 19 24  1  0
 19 25  1  0
 18 26  1  0
 18 27  1  0
  1 28  1  0
  1 29  1  0
M  END
$$$$
