
     RDKit          3D

 25 24  0  0  0  0  0  0  0  0999 V2000
   -0.4433    6.4821  -13.0645 C   0  0  0  0  0  0  0  0  0  0  0  0
   -0.1211    7.3079  -12.1623 O   0  0  0  0  0  0  0  0  0  0  0  0
    0.1970    5.1194  -13.1365 C   0  0  0  0  0  0  0  0  0  0  0  0
    0.8173    4.7375  -11.8354 C   0  0  0  0  0  0  0  0  0  0  0  0
    1.4724    3.4175  -11.7734 C   0  0  0  0  0  0  0  0  0  0  0  0
    1.8489    2.8399  -10.4634 C   0  0  0  0  0  0  0  0  0  0  0  0
    2.5107    1.5173  -10.4471 C   0  0  0  0  0  0  0  0  0  0  0  0
    3.0105    1.0188   -9.1192 C   0  0  0  0  0  0  0  0  0  0  0  0
    3.2499   -0.4447   -9.0054 C   0  0  0  0  0  0  0  0  0  0  0  0
    4.2681   -0.8993   -9.8023 F   0  0  0  0  0  0  0  0  0  0  0  0
    3.3004   -0.8826   -7.7094 F   0  0  0  0  0  0  0  0  0  0  0  0
    2.1020   -1.1136   -9.5287 F   0  0  0  0  0  0  0  0  0  0  0  0
    4.0834    1.7713   -8.6684 F   0  0  0  0  0  0  0  0  0  0  0  0
    1.9831    1.3191   -8.2049 F   0  0  0  0  0  0  0  0  0  0  0  0
    1.6174    0.5297  -10.8842 F   0  0  0  0  0  0  0  0  0  0  0  0
    3.6353    1.5152  -11.2829 F   0  0  0  0  0  0  0  0  0  0  0  0
    0.8122    2.8832   -9.5471 F   0  0  0  0  0  0  0  0  0  0  0  0
    2.7977    3.7507   -9.9366 F   0  0  0  0  0  0  0  0  0  0  0  0
    2.6686    3.5410  -12.5051 F   0  0  0  0  0  0  0  0  0  0  0  0
    0.7326    2.4732  -12.4745 F   0  0  0  0  0  0  0  0  0  0  0  0
   -0.2590    4.6636  -10.9117 F   0  0  0  0  0  0  0  0  0  0  0  0
    1.5491    5.8052  -11.3613 F   0  0  0  0  0  0  0  0  0  0  0  0
   -0.6935    4.2653  -13.6817 F   0  0  0  0  0  0  0  0  0  0  0  0
    1.2207    5.2821  -14.0764 F   0  0  0  0  0  0  0  0  0  0  0  0
   -1.3968    6.7926  -14.0244 O   0  0  0  0  0  0  0  0  0  0  0  0
  1  2  2  0
  1  3  1  0
  3  4  1  0
  4  5  1  0
  5  6  1  0
  6  7  1  0
  7  8  1  0
  8  9  1  0
  9 10  1  0
  9 11  1  0
  9 12  1  0
  8 13  1  0
  8 14  1  0
  7 15  1  0
  7 16  1  0
  6 17  1  0
  6 18  1  0
  5 19  1  0
  5 20  1  0
  4 21  1  0
  4 22  1  0
  3 23  1  0
  3 24  1  0
  1 25  1  0
M  END
$$$$
