
     RDKit          3D

 25 24  0  0  0  0  0  0  0  0999 V2000
   -2.0168    6.9415  -11.2978 C   0  0  0  0  0  0  0  0  0  0  0  0
   -2.3506    6.8308  -12.5127 O   0  0  0  0  0  0  0  0  0  0  0  0
   -0.6239    6.5930  -10.8390 C   0  0  0  0  0  0  0  0  0  0  0  0
   -0.4582    5.1215  -10.6637 C   0  0  0  0  0  0  0  0  0  0  0  0
    0.8710    4.6488  -10.2333 C   0  0  0  0  0  0  0  0  0  0  0  0
    1.1749    3.1999  -10.2300 C   0  0  0  0  0  0  0  0  0  0  0  0
    2.4566    2.7562   -9.6403 C   0  0  0  0  0  0  0  0  0  0  0  0
    2.6020    1.2888   -9.3448 C   0  0  0  0  0  0  0  0  0  0  0  0
    3.9505    0.6981   -9.5564 C   0  0  0  0  0  0  0  0  0  0  0  0
    4.4337    0.8708  -10.8272 F   0  0  0  0  0  0  0  0  0  0  0  0
    4.8371    1.0107   -8.5612 F   0  0  0  0  0  0  0  0  0  0  0  0
    3.8250   -0.7199   -9.4446 F   0  0  0  0  0  0  0  0  0  0  0  0
    2.0670    0.9672   -8.1076 F   0  0  0  0  0  0  0  0  0  0  0  0
    1.7456    0.6447  -10.2577 F   0  0  0  0  0  0  0  0  0  0  0  0
    3.5125    3.0491  -10.5143 F   0  0  0  0  0  0  0  0  0  0  0  0
    2.6880    3.3981   -8.4165 F   0  0  0  0  0  0  0  0  0  0  0  0
    0.9725    2.6128  -11.4671 F   0  0  0  0  0  0  0  0  0  0  0  0
    0.1616    2.6294   -9.4206 F   0  0  0  0  0  0  0  0  0  0  0  0
    1.0284    5.0848   -8.9042 F   0  0  0  0  0  0  0  0  0  0  0  0
    1.8729    5.3070  -10.9356 F   0  0  0  0  0  0  0  0  0  0  0  0
   -0.6523    4.5636  -11.9553 F   0  0  0  0  0  0  0  0  0  0  0  0
   -1.5376    4.6333   -9.9588 F   0  0  0  0  0  0  0  0  0  0  0  0
    0.2541    7.2323  -11.6391 F   0  0  0  0  0  0  0  0  0  0  0  0
   -0.5279    7.1954   -9.5797 F   0  0  0  0  0  0  0  0  0  0  0  0
   -2.9142    7.3870  -10.3370 O   0  0  0  0  0  0  0  0  0  0  0  0
  1  2  2  0
  1  3  1  0
  3  4  1  0
  4  5  1  0
  5  6  1  0
  6  7  1  0
  7  8  1  0
  8  9  1  0
  9 10  1  0
  9 11  1  0
  9 12  1  0
  8 13  1  0
  8 14  1  0
  7 15  1  0
  7 16  1  0
  6 17  1  0
  6 18  1  0
  5 19  1  0
  5 20  1  0
  4 21  1  0
  4 22  1  0
  3 23  1  0
  3 24  1  0
  1 25  1  0
M  END
$$$$
