
     RDKit          3D

 25 24  0  0  0  0  0  0  0  0999 V2000
   -2.3063    7.0614  -11.0598 C   0  0  0  0  0  0  0  0  0  0  0  0
   -2.9839    7.0741   -9.9919 O   0  0  0  0  0  0  0  0  0  0  0  0
   -1.5895    5.8147  -11.5115 C   0  0  0  0  0  0  0  0  0  0  0  0
   -0.4628    5.4704  -10.5974 C   0  0  0  0  0  0  0  0  0  0  0  0
    0.3234    4.2688  -10.9346 C   0  0  0  0  0  0  0  0  0  0  0  0
    1.1537    3.6139   -9.8987 C   0  0  0  0  0  0  0  0  0  0  0  0
    1.9819    2.4551  -10.2966 C   0  0  0  0  0  0  0  0  0  0  0  0
    2.6091    1.6507   -9.1915 C   0  0  0  0  0  0  0  0  0  0  0  0
    3.0805    0.2857   -9.5473 C   0  0  0  0  0  0  0  0  0  0  0  0
    3.6303   -0.3984   -8.4946 F   0  0  0  0  0  0  0  0  0  0  0  0
    2.1661   -0.4265  -10.2758 F   0  0  0  0  0  0  0  0  0  0  0  0
    4.1758    0.4276  -10.4524 F   0  0  0  0  0  0  0  0  0  0  0  0
    3.5680    2.3861   -8.5130 F   0  0  0  0  0  0  0  0  0  0  0  0
    1.5863    1.4754   -8.2403 F   0  0  0  0  0  0  0  0  0  0  0  0
    1.2038    1.5330  -11.0099 F   0  0  0  0  0  0  0  0  0  0  0  0
    3.0534    2.8643  -11.1015 F   0  0  0  0  0  0  0  0  0  0  0  0
    0.4410    3.3369   -8.7448 F   0  0  0  0  0  0  0  0  0  0  0  0
    2.0674    4.6179   -9.4931 F   0  0  0  0  0  0  0  0  0  0  0  0
    1.2083    4.6565  -11.9583 F   0  0  0  0  0  0  0  0  0  0  0  0
   -0.4872    3.3057  -11.5227 F   0  0  0  0  0  0  0  0  0  0  0  0
   -1.0678    5.1811   -9.3454 F   0  0  0  0  0  0  0  0  0  0  0  0
    0.2567    6.6149  -10.3277 F   0  0  0  0  0  0  0  0  0  0  0  0
   -2.5143    4.8630  -11.7535 F   0  0  0  0  0  0  0  0  0  0  0  0
   -1.0504    6.1719  -12.7523 F   0  0  0  0  0  0  0  0  0  0  0  0
   -2.1929    8.1901  -11.8599 O   0  0  0  0  0  0  0  0  0  0  0  0
  1  2  2  0
  1  3  1  0
  3  4  1  0
  4  5  1  0
  5  6  1  0
  6  7  1  0
  7  8  1  0
  8  9  1  0
  9 10  1  0
  9 11  1  0
  9 12  1  0
  8 13  1  0
  8 14  1  0
  7 15  1  0
  7 16  1  0
  6 17  1  0
  6 18  1  0
  5 19  1  0
  5 20  1  0
  4 21  1  0
  4 22  1  0
  3 23  1  0
  3 24  1  0
  1 25  1  0
M  END
$$$$
