
     RDKit          3D

 25 24  0  0  0  0  0  0  0  0999 V2000
   -0.6720    6.5627  -13.1607 C   0  0  0  0  0  0  0  0  0  0  0  0
   -1.7303    6.6116  -13.8516 O   0  0  0  0  0  0  0  0  0  0  0  0
    0.2188    5.3470  -13.1873 C   0  0  0  0  0  0  0  0  0  0  0  0
    0.4785    4.8294  -11.8131 C   0  0  0  0  0  0  0  0  0  0  0  0
    1.4072    3.6895  -11.6966 C   0  0  0  0  0  0  0  0  0  0  0  0
    1.6447    3.0614  -10.3773 C   0  0  0  0  0  0  0  0  0  0  0  0
    2.6199    1.9525  -10.2968 C   0  0  0  0  0  0  0  0  0  0  0  0
    2.6069    1.1195   -9.0447 C   0  0  0  0  0  0  0  0  0  0  0  0
    3.2045   -0.2389   -9.1433 C   0  0  0  0  0  0  0  0  0  0  0  0
    3.1559   -0.9477   -7.9712 F   0  0  0  0  0  0  0  0  0  0  0  0
    2.7865   -0.9320  -10.2473 F   0  0  0  0  0  0  0  0  0  0  0  0
    4.6052   -0.0807   -9.3714 F   0  0  0  0  0  0  0  0  0  0  0  0
    3.0837    1.8343   -7.9574 F   0  0  0  0  0  0  0  0  0  0  0  0
    1.2446    0.9265   -8.7474 F   0  0  0  0  0  0  0  0  0  0  0  0
    2.3920    1.0382  -11.3344 F   0  0  0  0  0  0  0  0  0  0  0  0
    3.9310    2.4367  -10.3975 F   0  0  0  0  0  0  0  0  0  0  0  0
    0.4679    2.7304   -9.7280 F   0  0  0  0  0  0  0  0  0  0  0  0
    2.1820    4.1040   -9.5825 F   0  0  0  0  0  0  0  0  0  0  0  0
    2.6587    4.1595  -12.1374 F   0  0  0  0  0  0  0  0  0  0  0  0
    1.0712    2.6928  -12.6045 F   0  0  0  0  0  0  0  0  0  0  0  0
   -0.7724    4.3402  -11.3517 F   0  0  0  0  0  0  0  0  0  0  0  0
    0.7135    5.8968  -10.9731 F   0  0  0  0  0  0  0  0  0  0  0  0
   -0.2748    4.4845  -14.0995 F   0  0  0  0  0  0  0  0  0  0  0  0
    1.4251    5.8296  -13.7064 F   0  0  0  0  0  0  0  0  0  0  0  0
   -0.2852    7.6217  -12.3509 O   0  0  0  0  0  0  0  0  0  0  0  0
  1  2  2  0
  1  3  1  0
  3  4  1  0
  4  5  1  0
  5  6  1  0
  6  7  1  0
  7  8  1  0
  8  9  1  0
  9 10  1  0
  9 11  1  0
  9 12  1  0
  8 13  1  0
  8 14  1  0
  7 15  1  0
  7 16  1  0
  6 17  1  0
  6 18  1  0
  5 19  1  0
  5 20  1  0
  4 21  1  0
  4 22  1  0
  3 23  1  0
  3 24  1  0
  1 25  1  0
M  END
$$$$
