
     RDKit          3D

 29 28  0  0  0  0  0  0  0  0999 V2000
   -1.8047   -4.9153   -5.1595 C   0  0  0  0  0  0  0  0  0  0  0  0
   -1.9430   -5.7420   -6.4284 C   0  0  0  0  0  0  0  0  0  0  0  0
   -1.0698   -5.1665   -7.5440 C   0  0  0  0  0  0  0  0  0  0  0  0
   -1.1587   -6.1678   -8.6568 C   0  0  0  0  0  0  0  0  0  0  0  0
   -0.3425   -5.9294   -9.8637 C   0  0  0  0  0  0  0  0  0  0  0  0
   -0.2300   -4.5764  -10.1763 F   0  0  0  0  0  0  0  0  0  0  0  0
    0.9885   -6.2880   -9.5214 F   0  0  0  0  0  0  0  0  0  0  0  0
   -0.7749   -6.9144  -11.2536 S   0  0  0  0  0  0  0  0  0  0  0  0
   -0.8824   -8.3716  -10.8738 O   0  0  0  0  0  0  0  0  0  0  0  0
    0.1289   -6.6693  -12.3998 O   0  0  0  0  0  0  0  0  0  0  0  0
   -2.3544   -6.4936  -11.7684 O   0  0  0  0  0  0  0  0  0  0  0  0
   -2.5023   -6.1566   -9.0858 F   0  0  0  0  0  0  0  0  0  0  0  0
   -0.9309   -7.4099   -8.0801 F   0  0  0  0  0  0  0  0  0  0  0  0
   -1.5418   -3.9194   -7.8779 F   0  0  0  0  0  0  0  0  0  0  0  0
    0.2252   -5.0806   -7.0519 F   0  0  0  0  0  0  0  0  0  0  0  0
   -3.2435   -5.6811   -6.8346 F   0  0  0  0  0  0  0  0  0  0  0  0
   -1.5371   -7.0469   -6.2424 F   0  0  0  0  0  0  0  0  0  0  0  0
   -2.6061   -5.6323   -4.1045 C   0  0  0  0  0  0  0  0  0  0  0  0
   -2.4591   -5.1346   -2.7168 C   0  0  0  0  0  0  0  0  0  0  0  0
   -3.3853   -5.6840   -1.6923 C   0  0  0  0  0  0  0  0  0  0  0  0
   -3.3506   -7.0495   -1.5837 F   0  0  0  0  0  0  0  0  0  0  0  0
   -2.9005   -5.2150   -0.4483 F   0  0  0  0  0  0  0  0  0  0  0  0
   -4.6582   -5.2272   -1.7656 F   0  0  0  0  0  0  0  0  0  0  0  0
   -1.1417   -5.3990   -2.3040 F   0  0  0  0  0  0  0  0  0  0  0  0
   -2.5487   -3.7553   -2.7427 F   0  0  0  0  0  0  0  0  0  0  0  0
   -3.9434   -5.7380   -4.4896 F   0  0  0  0  0  0  0  0  0  0  0  0
   -2.1274   -6.9545   -4.1026 F   0  0  0  0  0  0  0  0  0  0  0  0
   -0.4695   -4.9056   -4.8293 F   0  0  0  0  0  0  0  0  0  0  0  0
   -2.2845   -3.6499   -5.4453 F   0  0  0  0  0  0  0  0  0  0  0  0
  1  2  1  0
  2  3  1  0
  3  4  1  0
  4  5  1  0
  5  6  1  0
  5  7  1  0
  5  8  1  0
  8  9  2  0
  8 10  2  0
  8 11  1  0
  4 12  1  0
  4 13  1  0
  3 14  1  0
  3 15  1  0
  2 16  1  0
  2 17  1  0
  1 18  1  0
 18 19  1  0
 19 20  1  0
 20 21  1  0
 20 22  1  0
 20 23  1  0
 19 24  1  0
 19 25  1  0
 18 26  1  0
 18 27  1  0
  1 28  1  0
  1 29  1  0
M  END
$$$$
