
     RDKit          3D

 29 28  0  0  0  0  0  0  0  0999 V2000
    8.8257  -15.3478   12.7418 C   0  0  0  0  0  0  0  0  0  0  0  0
    8.4815  -15.9809   14.0810 C   0  0  0  0  0  0  0  0  0  0  0  0
    8.9823  -15.1095   15.2334 C   0  0  0  0  0  0  0  0  0  0  0  0
    8.5587  -15.8346   16.4757 C   0  0  0  0  0  0  0  0  0  0  0  0
    8.9829  -15.2781   17.7757 C   0  0  0  0  0  0  0  0  0  0  0  0
   10.3650  -15.1298   17.8702 F   0  0  0  0  0  0  0  0  0  0  0  0
    8.5167  -13.9369   17.8058 F   0  0  0  0  0  0  0  0  0  0  0  0
    8.2870  -16.0719   19.1809 S   0  0  0  0  0  0  0  0  0  0  0  0
    8.7355  -15.4048   20.4588 O   0  0  0  0  0  0  0  0  0  0  0  0
    8.5312  -17.5316   19.1611 O   0  0  0  0  0  0  0  0  0  0  0  0
    6.5873  -15.8529   19.1632 O   0  0  0  0  0  0  0  0  0  0  0  0
    9.1355  -17.1191   16.3942 F   0  0  0  0  0  0  0  0  0  0  0  0
    7.1843  -16.0038   16.3765 F   0  0  0  0  0  0  0  0  0  0  0  0
   10.3433  -14.9564   15.1146 F   0  0  0  0  0  0  0  0  0  0  0  0
    8.3440  -13.8813   15.1297 F   0  0  0  0  0  0  0  0  0  0  0  0
    9.1151  -17.1863   14.1554 F   0  0  0  0  0  0  0  0  0  0  0  0
    7.1202  -16.1194   14.2531 F   0  0  0  0  0  0  0  0  0  0  0  0
    8.3437  -16.3108   11.6884 C   0  0  0  0  0  0  0  0  0  0  0  0
    8.6714  -15.9669   10.2850 C   0  0  0  0  0  0  0  0  0  0  0  0
    8.0575  -16.7984    9.2168 C   0  0  0  0  0  0  0  0  0  0  0  0
    8.4238  -16.4353    7.9472 F   0  0  0  0  0  0  0  0  0  0  0  0
    8.5961  -18.0960    9.3857 F   0  0  0  0  0  0  0  0  0  0  0  0
    6.7166  -16.9614    9.3158 F   0  0  0  0  0  0  0  0  0  0  0  0
    8.2933  -14.6299   10.0720 F   0  0  0  0  0  0  0  0  0  0  0  0
   10.0473  -15.9681   10.1518 F   0  0  0  0  0  0  0  0  0  0  0  0
    8.7103  -17.6180   12.0121 F   0  0  0  0  0  0  0  0  0  0  0  0
    6.9407  -16.2980   11.7809 F   0  0  0  0  0  0  0  0  0  0  0  0
    8.1319  -14.1624   12.6672 F   0  0  0  0  0  0  0  0  0  0  0  0
   10.1954  -15.1570   12.7232 F   0  0  0  0  0  0  0  0  0  0  0  0
  1  2  1  0
  2  3  1  0
  3  4  1  0
  4  5  1  0
  5  6  1  0
  5  7  1  0
  5  8  1  0
  8  9  2  0
  8 10  2  0
  8 11  1  0
  4 12  1  0
  4 13  1  0
  3 14  1  0
  3 15  1  0
  2 16  1  0
  2 17  1  0
  1 18  1  0
 18 19  1  0
 19 20  1  0
 20 21  1  0
 20 22  1  0
 20 23  1  0
 19 24  1  0
 19 25  1  0
 18 26  1  0
 18 27  1  0
  1 28  1  0
  1 29  1  0
M  END
$$$$
