
     RDKit          3D

 29 28  0  0  0  0  0  0  0  0999 V2000
   -2.0069   -6.1176   -7.9798 C   0  0  0  0  0  0  0  0  0  0  0  0
   -1.0149   -6.2313   -9.1269 C   0  0  0  0  0  0  0  0  0  0  0  0
   -1.7455   -6.4667  -10.4494 C   0  0  0  0  0  0  0  0  0  0  0  0
   -0.6688   -6.8494  -11.4204 C   0  0  0  0  0  0  0  0  0  0  0  0
   -1.0767   -7.2144  -12.7915 C   0  0  0  0  0  0  0  0  0  0  0  0
   -1.9434   -8.3049  -12.8207 F   0  0  0  0  0  0  0  0  0  0  0  0
   -1.8902   -6.1494  -13.2616 F   0  0  0  0  0  0  0  0  0  0  0  0
    0.2456   -7.3664  -13.9393 S   0  0  0  0  0  0  0  0  0  0  0  0
    1.1046   -6.1249  -13.9451 O   0  0  0  0  0  0  0  0  0  0  0  0
   -0.2387   -7.7542  -15.2830 O   0  0  0  0  0  0  0  0  0  0  0  0
    1.3022   -8.6096  -13.4148 O   0  0  0  0  0  0  0  0  0  0  0  0
   -0.0452   -7.9939  -10.8810 F   0  0  0  0  0  0  0  0  0  0  0  0
    0.2683   -5.8258  -11.3837 F   0  0  0  0  0  0  0  0  0  0  0  0
   -2.6984   -7.4396  -10.2625 F   0  0  0  0  0  0  0  0  0  0  0  0
   -2.3407   -5.2661  -10.8115 F   0  0  0  0  0  0  0  0  0  0  0  0
   -0.2130   -7.3084   -8.8887 F   0  0  0  0  0  0  0  0  0  0  0  0
   -0.2727   -5.0797   -9.2850 F   0  0  0  0  0  0  0  0  0  0  0  0
   -1.1926   -5.7957   -6.7539 C   0  0  0  0  0  0  0  0  0  0  0  0
   -1.9335   -5.7277   -5.4727 C   0  0  0  0  0  0  0  0  0  0  0  0
   -1.1323   -5.6238   -4.2250 C   0  0  0  0  0  0  0  0  0  0  0  0
   -1.8683   -5.7559   -3.0767 F   0  0  0  0  0  0  0  0  0  0  0  0
   -0.2724   -6.7476   -4.2285 F   0  0  0  0  0  0  0  0  0  0  0  0
   -0.3063   -4.5523   -4.1610 F   0  0  0  0  0  0  0  0  0  0  0  0
   -2.7952   -4.6188   -5.5343 F   0  0  0  0  0  0  0  0  0  0  0  0
   -2.7747   -6.8225   -5.4035 F   0  0  0  0  0  0  0  0  0  0  0  0
   -0.0737   -6.6261   -6.6745 F   0  0  0  0  0  0  0  0  0  0  0  0
   -0.6700   -4.5094   -6.9767 F   0  0  0  0  0  0  0  0  0  0  0  0
   -2.8554   -5.0784   -8.2833 F   0  0  0  0  0  0  0  0  0  0  0  0
   -2.6691   -7.3288   -7.8943 F   0  0  0  0  0  0  0  0  0  0  0  0
  1  2  1  0
  2  3  1  0
  3  4  1  0
  4  5  1  0
  5  6  1  0
  5  7  1  0
  5  8  1  0
  8  9  2  0
  8 10  2  0
  8 11  1  0
  4 12  1  0
  4 13  1  0
  3 14  1  0
  3 15  1  0
  2 16  1  0
  2 17  1  0
  1 18  1  0
 18 19  1  0
 19 20  1  0
 20 21  1  0
 20 22  1  0
 20 23  1  0
 19 24  1  0
 19 25  1  0
 18 26  1  0
 18 27  1  0
  1 28  1  0
  1 29  1  0
M  END
$$$$
