
     RDKit          3D

 29 28  0  0  0  0  0  0  0  0999 V2000
   -1.1304   -5.2352   -8.2991 C   0  0  0  0  0  0  0  0  0  0  0  0
   -1.0866   -6.3435   -9.3395 C   0  0  0  0  0  0  0  0  0  0  0  0
   -0.7801   -5.7711  -10.7239 C   0  0  0  0  0  0  0  0  0  0  0  0
   -0.5508   -6.9708  -11.5937 C   0  0  0  0  0  0  0  0  0  0  0  0
   -0.2958   -6.7411  -13.0296 C   0  0  0  0  0  0  0  0  0  0  0  0
   -1.0583   -5.6972  -13.5493 F   0  0  0  0  0  0  0  0  0  0  0  0
    1.0308   -6.2428  -13.1236 F   0  0  0  0  0  0  0  0  0  0  0  0
   -0.3502   -8.1855  -14.0294 S   0  0  0  0  0  0  0  0  0  0  0  0
   -0.1376   -7.8465  -15.4850 O   0  0  0  0  0  0  0  0  0  0  0  0
   -1.5767   -8.9761  -13.7815 O   0  0  0  0  0  0  0  0  0  0  0  0
    0.9781   -9.1925  -13.6310 O   0  0  0  0  0  0  0  0  0  0  0  0
   -1.7344   -7.7350  -11.5249 F   0  0  0  0  0  0  0  0  0  0  0  0
    0.4446   -7.7144  -10.9744 F   0  0  0  0  0  0  0  0  0  0  0  0
   -1.8364   -4.9872  -11.1233 F   0  0  0  0  0  0  0  0  0  0  0  0
    0.3746   -5.0094  -10.6092 F   0  0  0  0  0  0  0  0  0  0  0  0
   -2.3171   -6.9297   -9.3866 F   0  0  0  0  0  0  0  0  0  0  0  0
   -0.1011   -7.2694   -9.0678 F   0  0  0  0  0  0  0  0  0  0  0  0
   -1.4256   -5.9082   -6.9841 C   0  0  0  0  0  0  0  0  0  0  0  0
   -1.2612   -5.0763   -5.7692 C   0  0  0  0  0  0  0  0  0  0  0  0
   -1.2369   -5.7779   -4.4591 C   0  0  0  0  0  0  0  0  0  0  0  0
   -2.2999   -5.4806   -3.6470 F   0  0  0  0  0  0  0  0  0  0  0  0
   -1.3908   -7.1523   -4.7588 F   0  0  0  0  0  0  0  0  0  0  0  0
   -0.0643   -5.6964   -3.7862 F   0  0  0  0  0  0  0  0  0  0  0  0
   -0.0622   -4.3548   -5.9028 F   0  0  0  0  0  0  0  0  0  0  0  0
   -2.2526   -4.1128   -5.7701 F   0  0  0  0  0  0  0  0  0  0  0  0
   -2.6668   -6.5451   -7.0251 F   0  0  0  0  0  0  0  0  0  0  0  0
   -0.4896   -6.9522   -6.8775 F   0  0  0  0  0  0  0  0  0  0  0  0
    0.1167   -4.6553   -8.2764 F   0  0  0  0  0  0  0  0  0  0  0  0
   -2.1153   -4.3477   -8.6929 F   0  0  0  0  0  0  0  0  0  0  0  0
  1  2  1  0
  2  3  1  0
  3  4  1  0
  4  5  1  0
  5  6  1  0
  5  7  1  0
  5  8  1  0
  8  9  2  0
  8 10  2  0
  8 11  1  0
  4 12  1  0
  4 13  1  0
  3 14  1  0
  3 15  1  0
  2 16  1  0
  2 17  1  0
  1 18  1  0
 18 19  1  0
 19 20  1  0
 20 21  1  0
 20 22  1  0
 20 23  1  0
 19 24  1  0
 19 25  1  0
 18 26  1  0
 18 27  1  0
  1 28  1  0
  1 29  1  0
M  END
$$$$
