
     RDKit          3D

 29 28  0  0  0  0  0  0  0  0999 V2000
    2.2894   -4.0496   -8.6274 C   0  0  0  0  0  0  0  0  0  0  0  0
    3.1576   -3.6045   -9.7939 C   0  0  0  0  0  0  0  0  0  0  0  0
    4.6199   -3.4865   -9.3627 C   0  0  0  0  0  0  0  0  0  0  0  0
    5.3355   -2.9597  -10.5706 C   0  0  0  0  0  0  0  0  0  0  0  0
    6.7762   -2.6638  -10.4424 C   0  0  0  0  0  0  0  0  0  0  0  0
    7.0561   -1.8146   -9.3739 F   0  0  0  0  0  0  0  0  0  0  0  0
    7.3992   -3.8795  -10.0535 F   0  0  0  0  0  0  0  0  0  0  0  0
    7.5625   -2.1634  -11.9324 S   0  0  0  0  0  0  0  0  0  0  0  0
    6.8816   -0.9536  -12.5256 O   0  0  0  0  0  0  0  0  0  0  0  0
    7.6980   -3.2889  -12.8838 O   0  0  0  0  0  0  0  0  0  0  0  0
    9.1489   -1.6229  -11.5741 O   0  0  0  0  0  0  0  0  0  0  0  0
    4.7126   -1.7354  -10.8905 F   0  0  0  0  0  0  0  0  0  0  0  0
    5.0487   -3.8394  -11.6056 F   0  0  0  0  0  0  0  0  0  0  0  0
    4.6938   -2.6597   -8.2670 F   0  0  0  0  0  0  0  0  0  0  0  0
    5.0592   -4.7629   -9.0392 F   0  0  0  0  0  0  0  0  0  0  0  0
    2.7329   -2.3713  -10.1923 F   0  0  0  0  0  0  0  0  0  0  0  0
    3.1248   -4.5064  -10.8368 F   0  0  0  0  0  0  0  0  0  0  0  0
    0.9032   -4.2379   -9.1865 C   0  0  0  0  0  0  0  0  0  0  0  0
   -0.1199   -4.7521   -8.2463 C   0  0  0  0  0  0  0  0  0  0  0  0
   -1.4690   -5.0439   -8.7976 C   0  0  0  0  0  0  0  0  0  0  0  0
   -1.8796   -6.3381   -8.6124 F   0  0  0  0  0  0  0  0  0  0  0  0
   -2.3712   -4.2704   -8.0293 F   0  0  0  0  0  0  0  0  0  0  0  0
   -1.6657   -4.6421  -10.0761 F   0  0  0  0  0  0  0  0  0  0  0  0
    0.3826   -5.9313   -7.6692 F   0  0  0  0  0  0  0  0  0  0  0  0
   -0.2227   -3.8621   -7.1935 F   0  0  0  0  0  0  0  0  0  0  0  0
    0.4799   -3.0856   -9.8505 F   0  0  0  0  0  0  0  0  0  0  0  0
    1.0338   -5.2071  -10.1970 F   0  0  0  0  0  0  0  0  0  0  0  0
    2.7978   -5.2474   -8.1816 F   0  0  0  0  0  0  0  0  0  0  0  0
    2.3616   -3.0579   -7.6661 F   0  0  0  0  0  0  0  0  0  0  0  0
  1  2  1  0
  2  3  1  0
  3  4  1  0
  4  5  1  0
  5  6  1  0
  5  7  1  0
  5  8  1  0
  8  9  2  0
  8 10  2  0
  8 11  1  0
  4 12  1  0
  4 13  1  0
  3 14  1  0
  3 15  1  0
  2 16  1  0
  2 17  1  0
  1 18  1  0
 18 19  1  0
 19 20  1  0
 20 21  1  0
 20 22  1  0
 20 23  1  0
 19 24  1  0
 19 25  1  0
 18 26  1  0
 18 27  1  0
  1 28  1  0
  1 29  1  0
M  END
$$$$
