
     RDKit          3D

 29 28  0  0  0  0  0  0  0  0999 V2000
   -1.4094    9.7429  -17.7935 C   0  0  0  0  0  0  0  0  0  0  0  0
   -0.9440    9.6032  -19.2345 C   0  0  0  0  0  0  0  0  0  0  0  0
   -1.9746    8.8335  -20.0613 C   0  0  0  0  0  0  0  0  0  0  0  0
   -1.3729    8.7356  -21.4312 C   0  0  0  0  0  0  0  0  0  0  0  0
   -1.9507    7.7516  -22.3680 C   0  0  0  0  0  0  0  0  0  0  0  0
   -1.8880    6.4475  -21.8818 F   0  0  0  0  0  0  0  0  0  0  0  0
   -3.3469    8.0098  -22.4053 F   0  0  0  0  0  0  0  0  0  0  0  0
   -1.3814    7.8873  -24.0251 S   0  0  0  0  0  0  0  0  0  0  0  0
    0.1010    7.6158  -24.1137 O   0  0  0  0  0  0  0  0  0  0  0  0
   -1.7824    9.1738  -24.6374 O   0  0  0  0  0  0  0  0  0  0  0  0
   -2.0960    6.6459  -24.9661 O   0  0  0  0  0  0  0  0  0  0  0  0
   -0.0292    8.3510  -21.2410 F   0  0  0  0  0  0  0  0  0  0  0  0
   -1.3534   10.0274  -21.9395 F   0  0  0  0  0  0  0  0  0  0  0  0
   -2.2020    7.6161  -19.4646 F   0  0  0  0  0  0  0  0  0  0  0  0
   -3.1378    9.5908  -20.0796 F   0  0  0  0  0  0  0  0  0  0  0  0
    0.2187    8.8903  -19.2373 F   0  0  0  0  0  0  0  0  0  0  0  0
   -0.7816   10.8283  -19.8468 F   0  0  0  0  0  0  0  0  0  0  0  0
   -0.1798   10.0715  -16.9875 C   0  0  0  0  0  0  0  0  0  0  0  0
   -0.3715   10.2122  -15.5251 C   0  0  0  0  0  0  0  0  0  0  0  0
    0.7738   10.7319  -14.7330 C   0  0  0  0  0  0  0  0  0  0  0  0
    0.5247   10.8282  -13.3890 F   0  0  0  0  0  0  0  0  0  0  0  0
    1.7877    9.7503  -14.8381 F   0  0  0  0  0  0  0  0  0  0  0  0
    1.3356   11.8669  -15.2132 F   0  0  0  0  0  0  0  0  0  0  0  0
   -1.4708   11.0631  -15.3170 F   0  0  0  0  0  0  0  0  0  0  0  0
   -0.7750    8.9885  -15.0244 F   0  0  0  0  0  0  0  0  0  0  0  0
    0.8627    9.1988  -17.3028 F   0  0  0  0  0  0  0  0  0  0  0  0
    0.2500   11.3271  -17.4522 F   0  0  0  0  0  0  0  0  0  0  0  0
   -2.3035   10.7876  -17.7592 F   0  0  0  0  0  0  0  0  0  0  0  0
   -1.9924    8.5405  -17.4369 F   0  0  0  0  0  0  0  0  0  0  0  0
  1  2  1  0
  2  3  1  0
  3  4  1  0
  4  5  1  0
  5  6  1  0
  5  7  1  0
  5  8  1  0
  8  9  2  0
  8 10  2  0
  8 11  1  0
  4 12  1  0
  4 13  1  0
  3 14  1  0
  3 15  1  0
  2 16  1  0
  2 17  1  0
  1 18  1  0
 18 19  1  0
 19 20  1  0
 20 21  1  0
 20 22  1  0
 20 23  1  0
 19 24  1  0
 19 25  1  0
 18 26  1  0
 18 27  1  0
  1 28  1  0
  1 29  1  0
M  END
$$$$
