
     RDKit          3D

 16 18  0  0  0  0  0  0  0  0999 V2000
    9.8602  -59.0898   28.8711 C   0  0  0  0  0  0  0  0  0  0  0  0
    9.1155  -57.9290   29.0474 C   0  0  0  0  0  0  0  0  0  0  0  0
    9.7951  -56.7867   29.4163 C   0  0  0  0  0  0  0  0  0  0  0  0
   11.1582  -56.7477   29.6143 C   0  0  0  0  0  0  0  0  0  0  0  0
   11.8719  -57.9050   29.4346 C   0  0  0  0  0  0  0  0  0  0  0  0
   11.2398  -59.0881   29.0624 C   0  0  0  0  0  0  0  0  0  0  0  0
   11.7928  -55.5838   29.9821 N   0  0  0  0  0  0  0  0  0  0  0  0
   12.7970  -54.8322   29.3390 C   0  0  0  0  0  0  0  0  0  0  0  0
   13.1937  -55.3081   28.2161 O   0  0  0  0  0  0  0  0  0  0  0  0
   13.2338  -53.7386   29.9209 C   0  0  0  0  0  0  0  0  0  0  0  0
   14.2477  -52.8661   29.3990 C   0  0  0  0  0  0  0  0  0  0  0  0
   14.6203  -51.7522   30.0991 C   0  0  0  0  0  0  0  0  0  0  0  0
   14.0802  -51.3848   31.3125 C   0  0  0  0  0  0  0  0  0  0  0  0
   13.1043  -52.2173   31.8230 C   0  0  0  0  0  0  0  0  0  0  0  0
   12.7481  -53.3072   31.1256 C   0  0  0  0  0  0  0  0  0  0  0  0
   11.4722  -54.5860   31.5789 Se  0  0  0  0  0  2  0  0  0  0  0  0
  1  2  2  0
  2  3  1  0
  3  4  2  0
  4  5  1  0
  5  6  2  0
  4  7  1  0
  7  8  1  0
  8  9  2  0
  8 10  1  0
 10 11  2  0
 11 12  1  0
 12 13  2  0
 13 14  1  0
 14 15  2  0
 15 16  1  0
  6  1  1  0
 16  7  1  0
 15 10  1  0
M  END
$$$$
