
     RDKit          3D

 16 18  0  0  0  0  0  0  0  0999 V2000
   30.0978  -54.0901   49.0774 C   0  0  0  0  0  0  0  0  0  0  0  0
   29.7254  -55.3358   48.5848 C   0  0  0  0  0  0  0  0  0  0  0  0
   30.6404  -56.3624   48.6930 C   0  0  0  0  0  0  0  0  0  0  0  0
   31.8873  -56.2084   49.2592 C   0  0  0  0  0  0  0  0  0  0  0  0
   32.2323  -54.9704   49.7382 C   0  0  0  0  0  0  0  0  0  0  0  0
   31.3497  -53.8971   49.6562 C   0  0  0  0  0  0  0  0  0  0  0  0
   32.7670  -57.2625   49.3451 N   0  0  0  0  0  0  0  0  0  0  0  0
   33.9270  -57.4407   50.1260 C   0  0  0  0  0  0  0  0  0  0  0  0
   34.2206  -56.4548   50.8918 O   0  0  0  0  0  0  0  0  0  0  0  0
   34.5948  -58.5660   50.0122 C   0  0  0  0  0  0  0  0  0  0  0  0
   35.7903  -58.9011   50.7336 C   0  0  0  0  0  0  0  0  0  0  0  0
   36.3985  -60.1086   50.5292 C   0  0  0  0  0  0  0  0  0  0  0  0
   35.9391  -61.0675   49.6526 C   0  0  0  0  0  0  0  0  0  0  0  0
   34.7900  -60.7549   48.9540 C   0  0  0  0  0  0  0  0  0  0  0  0
   34.2032  -59.5664   49.1642 C   0  0  0  0  0  0  0  0  0  0  0  0
   32.6603  -58.8975   48.3635 Se  0  0  0  0  0  2  0  0  0  0  0  0
  1  2  2  0
  2  3  1  0
  3  4  2  0
  4  5  1  0
  5  6  2  0
  4  7  1  0
  7  8  1  0
  8  9  2  0
  8 10  1  0
 10 11  2  0
 11 12  1  0
 12 13  2  0
 13 14  1  0
 14 15  2  0
 15 16  1  0
  6  1  1  0
 16  7  1  0
 15 10  1  0
M  END
$$$$
