
     RDKit          3D

 16 18  0  0  0  0  0  0  0  0999 V2000
   17.7361  -40.2997   16.0363 C   0  0  0  0  0  0  0  0  0  0  0  0
   17.0759  -39.4853   16.9495 C   0  0  0  0  0  0  0  0  0  0  0  0
   16.4737  -40.0975   18.0291 C   0  0  0  0  0  0  0  0  0  0  0  0
   16.4982  -41.4594   18.2376 C   0  0  0  0  0  0  0  0  0  0  0  0
   17.1555  -42.2426   17.3233 C   0  0  0  0  0  0  0  0  0  0  0  0
   17.7816  -41.6803   16.2144 C   0  0  0  0  0  0  0  0  0  0  0  0
   15.8827  -42.0252   19.3300 N   0  0  0  0  0  0  0  0  0  0  0  0
   16.2729  -42.0915   20.6830 C   0  0  0  0  0  0  0  0  0  0  0  0
   17.3943  -41.5299   20.9510 O   0  0  0  0  0  0  0  0  0  0  0  0
   15.4833  -42.7034   21.5358 C   0  0  0  0  0  0  0  0  0  0  0  0
   15.7353  -42.8567   22.9411 C   0  0  0  0  0  0  0  0  0  0  0  0
   14.8349  -43.5165   23.7310 C   0  0  0  0  0  0  0  0  0  0  0  0
   13.6593  -44.0678   23.2694 C   0  0  0  0  0  0  0  0  0  0  0  0
   13.4077  -43.9258   21.9194 C   0  0  0  0  0  0  0  0  0  0  0  0
   14.2997  -43.2760   21.1556 C   0  0  0  0  0  0  0  0  0  0  0  0
   14.2091  -42.9455   19.3249 Se  0  0  0  0  0  2  0  0  0  0  0  0
  1  2  2  0
  2  3  1  0
  3  4  2  0
  4  5  1  0
  5  6  2  0
  4  7  1  0
  7  8  1  0
  8  9  2  0
  8 10  1  0
 10 11  2  0
 11 12  1  0
 12 13  2  0
 13 14  1  0
 14 15  2  0
 15 16  1  0
  6  1  1  0
 16  7  1  0
 15 10  1  0
M  END
$$$$
