
     RDKit          3D

 16 18  0  0  0  0  0  0  0  0999 V2000
   16.7768  -38.3161   15.8177 C   0  0  0  0  0  0  0  0  0  0  0  0
   17.2065  -38.8905   14.6267 C   0  0  0  0  0  0  0  0  0  0  0  0
   17.8525  -40.1069   14.7033 C   0  0  0  0  0  0  0  0  0  0  0  0
   18.0864  -40.7661   15.8906 C   0  0  0  0  0  0  0  0  0  0  0  0
   17.6534  -40.1801   17.0526 C   0  0  0  0  0  0  0  0  0  0  0  0
   16.9956  -38.9534   17.0366 C   0  0  0  0  0  0  0  0  0  0  0  0
   18.7355  -41.9787   15.9176 N   0  0  0  0  0  0  0  0  0  0  0  0
   20.1075  -42.2945   15.9878 C   0  0  0  0  0  0  0  0  0  0  0  0
   20.8940  -41.2827   16.0350 O   0  0  0  0  0  0  0  0  0  0  0  0
   20.4618  -43.5593   15.9990 C   0  0  0  0  0  0  0  0  0  0  0  0
   21.8113  -44.0451   16.0670 C   0  0  0  0  0  0  0  0  0  0  0  0
   22.0561  -45.3904   16.0720 C   0  0  0  0  0  0  0  0  0  0  0  0
   21.0741  -46.3555   16.0148 C   0  0  0  0  0  0  0  0  0  0  0  0
   19.7729  -45.8986   15.9491 C   0  0  0  0  0  0  0  0  0  0  0  0
   19.5467  -44.5757   15.9450 C   0  0  0  0  0  0  0  0  0  0  0  0
   17.9059  -43.6983   15.8640 Se  0  0  0  0  0  2  0  0  0  0  0  0
  1  2  2  0
  2  3  1  0
  3  4  2  0
  4  5  1  0
  5  6  2  0
  4  7  1  0
  7  8  1  0
  8  9  2  0
  8 10  1  0
 10 11  2  0
 11 12  1  0
 12 13  2  0
 13 14  1  0
 14 15  2  0
 15 16  1  0
  6  1  1  0
 16  7  1  0
 15 10  1  0
M  END
$$$$
