
     RDKit          3D

 16 18  0  0  0  0  0  0  0  0999 V2000
   14.9652  -57.1908    8.9359 C   0  0  0  0  0  0  0  0  0  0  0  0
   13.8906  -56.3250    9.1051 C   0  0  0  0  0  0  0  0  0  0  0  0
   12.8954  -56.3514    8.1501 C   0  0  0  0  0  0  0  0  0  0  0  0
   12.9207  -57.1856    7.0536 C   0  0  0  0  0  0  0  0  0  0  0  0
   13.9909  -58.0310    6.9078 C   0  0  0  0  0  0  0  0  0  0  0  0
   15.0246  -58.0482    7.8399 C   0  0  0  0  0  0  0  0  0  0  0  0
   11.9043  -57.1765    6.1266 N   0  0  0  0  0  0  0  0  0  0  0  0
   11.9140  -57.4173    4.7378 C   0  0  0  0  0  0  0  0  0  0  0  0
   13.0651  -57.6933    4.2444 O   0  0  0  0  0  0  0  0  0  0  0  0
   10.7803  -57.3426    4.0787 C   0  0  0  0  0  0  0  0  0  0  0  0
   10.6217  -57.5591    2.6681 C   0  0  0  0  0  0  0  0  0  0  0  0
    9.3856  -57.4530    2.0931 C   0  0  0  0  0  0  0  0  0  0  0  0
    8.2348  -57.1428    2.7848 C   0  0  0  0  0  0  0  0  0  0  0  0
    8.3767  -56.9327    4.1419 C   0  0  0  0  0  0  0  0  0  0  0  0
    9.5954  -57.0401    4.6935 C   0  0  0  0  0  0  0  0  0  0  0  0
   10.0637  -56.8099    6.4814 Se  0  0  0  0  0  2  0  0  0  0  0  0
  1  2  2  0
  2  3  1  0
  3  4  2  0
  4  5  1  0
  5  6  2  0
  4  7  1  0
  7  8  1  0
  8  9  2  0
  8 10  1  0
 10 11  2  0
 11 12  1  0
 12 13  2  0
 13 14  1  0
 14 15  2  0
 15 16  1  0
  6  1  1  0
 16  7  1  0
 15 10  1  0
M  END
$$$$
