
     RDKit          3D

 16 18  0  0  0  0  0  0  0  0999 V2000
   25.3175  -34.6589   28.5548 C   0  0  0  0  0  0  0  0  0  0  0  0
   25.4698  -35.2855   27.3231 C   0  0  0  0  0  0  0  0  0  0  0  0
   25.8403  -34.5005   26.2510 C   0  0  0  0  0  0  0  0  0  0  0  0
   26.0623  -33.1439   26.3474 C   0  0  0  0  0  0  0  0  0  0  0  0
   25.9059  -32.5477   27.5727 C   0  0  0  0  0  0  0  0  0  0  0  0
   25.5334  -33.2897   28.6900 C   0  0  0  0  0  0  0  0  0  0  0  0
   26.4307  -32.4014   25.2495 N   0  0  0  0  0  0  0  0  0  0  0  0
   27.4204  -32.6225   24.2704 C   0  0  0  0  0  0  0  0  0  0  0  0
   28.0998  -33.6997   24.4212 O   0  0  0  0  0  0  0  0  0  0  0  0
   27.5650  -31.7369   23.3112 C   0  0  0  0  0  0  0  0  0  0  0  0
   28.5220  -31.8148   22.2436 C   0  0  0  0  0  0  0  0  0  0  0  0
   28.5777  -30.8273   21.2994 C   0  0  0  0  0  0  0  0  0  0  0  0
   27.7575  -29.7200   21.2891 C   0  0  0  0  0  0  0  0  0  0  0  0
   26.8336  -29.6357   22.3116 C   0  0  0  0  0  0  0  0  0  0  0  0
   26.7897  -30.6117   23.2316 C   0  0  0  0  0  0  0  0  0  0  0  0
   25.6529  -30.7454   24.7009 Se  0  0  0  0  0  2  0  0  0  0  0  0
  1  2  2  0
  2  3  1  0
  3  4  2  0
  4  5  1  0
  5  6  2  0
  4  7  1  0
  7  8  1  0
  8  9  2  0
  8 10  1  0
 10 11  2  0
 11 12  1  0
 12 13  2  0
 13 14  1  0
 14 15  2  0
 15 16  1  0
  6  1  1  0
 16  7  1  0
 15 10  1  0
M  END
$$$$
