
     RDKit          3D

 12 12  0  0  0  0  0  0  0  0999 V2000
    9.4159  -51.9717   35.1855 C   0  0  0  0  0  0  0  0  0  0  0  0
    9.9522  -50.8018   34.4703 C   0  0  0  0  0  0  0  0  0  0  0  0
    9.5859  -49.5338   34.7437 N   0  0  0  0  0  0  0  0  0  0  0  0
   10.2684  -48.7379   33.9056 C   0  0  0  0  0  0  0  0  0  0  0  0
   11.0679  -49.4984   33.1001 C   0  0  0  0  0  0  0  0  0  0  0  0
   10.8595  -50.7773   33.4639 N   0  0  0  0  0  0  0  0  0  0  0  0
   11.4841  -51.9351   32.8948 C   0  0  0  0  0  0  0  0  0  0  0  0
   12.9288  -52.1226   33.2716 C   0  0  0  0  0  0  0  0  0  0  0  0
   13.4202  -53.3260   32.7090 O   0  0  0  0  0  0  0  0  0  0  0  0
   11.9226  -48.9648   32.0981 N   0  0  0  0  0  0  0  0  0  0  0  0
   12.0022  -47.7513   31.8279 O   0  0  0  0  0  0  0  0  0  0  0  0
   12.7057  -49.8420   31.3885 O   0  0  0  0  0  0  0  0  0  0  0  0
  1  2  1  0
  2  3  2  0
  3  4  1  0
  4  5  2  0
  5  6  1  0
  6  7  1  0
  7  8  1  0
  8  9  1  0
  5 10  1  0
 10 11  2  0
 10 12  1  0
  6  2  1  0
M  CHG  2  10   1  12  -1
M  END
$$$$
