
     RDKit          3D

 12 12  0  0  0  0  0  0  0  0999 V2000
    7.8588  -47.9641   -0.5236 C   0  0  0  0  0  0  0  0  0  0  0  0
    8.1073  -47.2877    0.7605 C   0  0  0  0  0  0  0  0  0  0  0  0
    7.1237  -46.8189    1.5539 N   0  0  0  0  0  0  0  0  0  0  0  0
    7.7129  -46.2702    2.6280 C   0  0  0  0  0  0  0  0  0  0  0  0
    9.0693  -46.3898    2.5181 C   0  0  0  0  0  0  0  0  0  0  0  0
    9.2972  -47.0238    1.3531 N   0  0  0  0  0  0  0  0  0  0  0  0
   10.5778  -47.3722    0.8116 C   0  0  0  0  0  0  0  0  0  0  0  0
   11.1041  -48.7129    1.2475 C   0  0  0  0  0  0  0  0  0  0  0  0
   12.2680  -49.0362    0.5079 O   0  0  0  0  0  0  0  0  0  0  0  0
    9.9898  -45.9108    3.4889 N   0  0  0  0  0  0  0  0  0  0  0  0
   11.2275  -45.9631    3.3571 O   0  0  0  0  0  0  0  0  0  0  0  0
    9.4808  -45.3579    4.6384 O   0  0  0  0  0  0  0  0  0  0  0  0
  1  2  1  0
  2  3  2  0
  3  4  1  0
  4  5  2  0
  5  6  1  0
  6  7  1  0
  7  8  1  0
  8  9  1  0
  5 10  1  0
 10 11  2  0
 10 12  1  0
  6  2  1  0
M  CHG  2  10   1  12  -1
M  END
$$$$
