
     RDKit          3D

 12 12  0  0  0  0  0  0  0  0999 V2000
   29.3360  -47.5254    2.5335 C   0  0  0  0  0  0  0  0  0  0  0  0
   28.7499  -48.8542    2.7761 C   0  0  0  0  0  0  0  0  0  0  0  0
   29.3618  -50.0070    2.4395 N   0  0  0  0  0  0  0  0  0  0  0  0
   28.5450  -51.0073    2.8056 C   0  0  0  0  0  0  0  0  0  0  0  0
   27.4150  -50.4916    3.3744 C   0  0  0  0  0  0  0  0  0  0  0  0
   27.5584  -49.1537    3.3483 N   0  0  0  0  0  0  0  0  0  0  0  0
   26.6193  -48.1887    3.8397 C   0  0  0  0  0  0  0  0  0  0  0  0
   26.8921  -47.6960    5.2351 C   0  0  0  0  0  0  0  0  0  0  0  0
   25.9756  -46.6694    5.5703 O   0  0  0  0  0  0  0  0  0  0  0  0
   26.3441  -51.2828    3.8710 N   0  0  0  0  0  0  0  0  0  0  0  0
   25.2798  -50.8107    4.3140 O   0  0  0  0  0  0  0  0  0  0  0  0
   26.4954  -52.6477    3.8596 O   0  0  0  0  0  0  0  0  0  0  0  0
  1  2  1  0
  2  3  2  0
  3  4  1  0
  4  5  2  0
  5  6  1  0
  6  7  1  0
  7  8  1  0
  8  9  1  0
  5 10  1  0
 10 11  2  0
 10 12  1  0
  6  2  1  0
M  CHG  2  10   1  12  -1
M  END
$$$$
