
     RDKit          3D

 12 12  0  0  0  0  0  0  0  0999 V2000
    8.9333  -44.3924   -8.2716 C   0  0  0  0  0  0  0  0  0  0  0  0
    9.1946  -45.4296   -7.2598 C   0  0  0  0  0  0  0  0  0  0  0  0
    8.3439  -45.7152   -6.2541 N   0  0  0  0  0  0  0  0  0  0  0  0
    8.9020  -46.7019   -5.5352 C   0  0  0  0  0  0  0  0  0  0  0  0
   10.1060  -47.0436   -6.0828 C   0  0  0  0  0  0  0  0  0  0  0  0
   10.2724  -46.2443   -7.1526 N   0  0  0  0  0  0  0  0  0  0  0  0
   11.3950  -46.2402   -8.0439 C   0  0  0  0  0  0  0  0  0  0  0  0
   12.4266  -45.1834   -7.7551 C   0  0  0  0  0  0  0  0  0  0  0  0
   13.5273  -45.3331   -8.6338 O   0  0  0  0  0  0  0  0  0  0  0  0
   10.9559  -48.0567   -5.5625 N   0  0  0  0  0  0  0  0  0  0  0  0
   10.7262  -48.6825   -4.5101 O   0  0  0  0  0  0  0  0  0  0  0  0
   12.0964  -48.3609   -6.2645 O   0  0  0  0  0  0  0  0  0  0  0  0
  1  2  1  0
  2  3  2  0
  3  4  1  0
  4  5  2  0
  5  6  1  0
  6  7  1  0
  7  8  1  0
  8  9  1  0
  5 10  1  0
 10 11  2  0
 10 12  1  0
  6  2  1  0
M  CHG  2  10   1  12  -1
M  END
$$$$
