
     RDKit          3D

 12 12  0  0  0  0  0  0  0  0999 V2000
    6.5458  -49.6661   30.5036 C   0  0  0  0  0  0  0  0  0  0  0  0
    7.6537  -49.3013   29.6049 C   0  0  0  0  0  0  0  0  0  0  0  0
    8.5788  -48.3694   29.9090 N   0  0  0  0  0  0  0  0  0  0  0  0
    9.4248  -48.3012   28.8691 C   0  0  0  0  0  0  0  0  0  0  0  0
    9.0385  -49.1884   27.9048 C   0  0  0  0  0  0  0  0  0  0  0  0
    7.9375  -49.8011   28.3775 N   0  0  0  0  0  0  0  0  0  0  0  0
    7.1774  -50.8166   27.7101 C   0  0  0  0  0  0  0  0  0  0  0  0
    6.0349  -50.3041   26.8755 C   0  0  0  0  0  0  0  0  0  0  0  0
    5.1550  -51.3682   26.5595 O   0  0  0  0  0  0  0  0  0  0  0  0
    9.7211  -49.3674   26.6713 N   0  0  0  0  0  0  0  0  0  0  0  0
   10.7099  -48.6952   26.3214 O   0  0  0  0  0  0  0  0  0  0  0  0
    9.2607  -50.3401   25.8181 O   0  0  0  0  0  0  0  0  0  0  0  0
  1  2  1  0
  2  3  2  0
  3  4  1  0
  4  5  2  0
  5  6  1  0
  6  7  1  0
  7  8  1  0
  8  9  1  0
  5 10  1  0
 10 11  2  0
 10 12  1  0
  6  2  1  0
M  CHG  2  10   1  12  -1
M  END
$$$$
