
     RDKit          3D

 12 12  0  0  0  0  0  0  0  0999 V2000
    7.6773  -52.5699   30.1298 C   0  0  0  0  0  0  0  0  0  0  0  0
    8.4314  -51.3386   30.4180 C   0  0  0  0  0  0  0  0  0  0  0  0
    7.8540  -50.1266   30.5377 N   0  0  0  0  0  0  0  0  0  0  0  0
    8.8347  -49.2479   30.7984 C   0  0  0  0  0  0  0  0  0  0  0  0
   10.0342  -49.8999   30.8445 C   0  0  0  0  0  0  0  0  0  0  0  0
    9.7660  -51.1970   30.6063 N   0  0  0  0  0  0  0  0  0  0  0  0
   10.7189  -52.2666   30.5568 C   0  0  0  0  0  0  0  0  0  0  0  0
   12.1408  -51.8588   30.8332 C   0  0  0  0  0  0  0  0  0  0  0  0
   12.9916  -52.9874   30.7399 O   0  0  0  0  0  0  0  0  0  0  0  0
   11.2768  -49.2593   31.0997 N   0  0  0  0  0  0  0  0  0  0  0  0
   11.4075  -48.0282   31.2376 O   0  0  0  0  0  0  0  0  0  0  0  0
   12.3968  -50.0477   31.2000 O   0  0  0  0  0  0  0  0  0  0  0  0
  1  2  1  0
  2  3  2  0
  3  4  1  0
  4  5  2  0
  5  6  1  0
  6  7  1  0
  7  8  1  0
  8  9  1  0
  5 10  1  0
 10 11  2  0
 10 12  1  0
  6  2  1  0
M  CHG  2  10   1  12  -1
M  END
$$$$
