
     RDKit          3D

 50 54  0  0  0  0  0  0  0  0999 V2000
   -1.3817  -50.7679   29.2330 C   0  0  0  0  0  0  0  0  0  0  0  0
   -1.6397  -51.3722   27.8809 C   0  0  0  0  0  0  0  0  0  0  0  0
   -3.1270  -51.2472   27.6048 C   0  0  0  0  0  0  0  0  0  0  0  0
   -1.2697  -52.7989   27.9124 C   0  0  0  0  0  0  0  0  0  0  0  0
   -0.3912  -53.1910   27.0920 O   0  0  0  0  0  0  0  0  0  0  0  0
   -1.8424  -53.7202   28.7995 O   0  0  0  0  0  0  0  0  0  0  0  0
   -0.8729  -50.7393   26.8651 O   0  0  0  0  0  0  0  0  0  0  0  0
   -1.2597  -50.7502   25.5664 N   0  0  0  0  0  0  0  0  0  0  0  0
   -0.5362  -50.4278   24.5498 C   0  0  0  0  0  0  0  0  0  0  0  0
   -0.9409  -50.8587   23.2034 C   0  0  0  0  0  0  0  0  0  0  0  0
   -0.3300  -50.4462   21.9877 C   0  0  0  0  0  0  0  0  0  0  0  0
   -1.2113  -51.2653   20.6691 S   0  0  0  0  0  0  0  0  0  0  0  0
   -2.3543  -52.1078   21.9642 C   0  0  0  0  0  0  0  0  0  0  0  0
   -1.9345  -51.6916   22.9525 N   0  0  0  0  0  0  0  0  0  0  0  0
   -3.3766  -52.9824   21.4463 N   0  0  0  0  0  0  0  0  0  0  0  0
    0.6585  -49.6317   24.7719 C   0  0  0  0  0  0  0  0  0  0  0  0
    1.4191  -49.2137   23.8629 O   0  0  0  0  0  0  0  0  0  0  0  0
    1.0427  -49.2684   26.1014 N   0  0  0  0  0  0  0  0  0  0  0  0
    2.2816  -48.4976   26.3038 C   0  0  0  0  0  0  0  0  0  0  0  0
    2.3403  -47.8336   27.6377 C   0  0  0  0  0  0  0  0  0  0  0  0
    3.4593  -48.6686   28.0732 N   0  0  0  0  0  0  0  0  0  0  0  0
    3.3371  -49.3445   26.8481 C   0  0  0  0  0  0  0  0  0  0  0  0
    3.9559  -50.3590   26.3895 O   0  0  0  0  0  0  0  0  0  0  0  0
    4.0586  -48.4067   29.3724 C   0  0  0  0  0  0  0  0  0  0  0  0
    4.0378  -47.2046   29.9203 C   0  0  0  0  0  0  0  0  0  0  0  0
    3.4257  -45.9890   29.3259 C   0  0  0  0  0  0  0  0  0  0  0  0
    3.1167  -46.1672   27.5618 S   0  0  0  0  0  0  0  0  0  0  0  0
    4.7298  -46.9783   31.2241 C   0  0  0  0  0  0  0  0  0  0  0  0
    5.9711  -46.2359   31.1333 N   0  0  0  0  0  0  0  0  0  0  0  0
    6.6567  -46.3992   29.9093 C   0  0  0  0  0  0  0  0  0  0  0  0
    6.9531  -45.0451   29.3051 C   0  0  0  0  0  0  0  0  0  0  0  0
    6.5082  -44.0482   30.3195 C   0  0  0  0  0  0  0  0  0  0  0  0
    5.7385  -44.8114   31.3324 C   0  0  0  0  0  0  0  0  0  0  0  0
    6.7970  -46.6555   32.2389 C   0  0  0  0  0  0  0  0  0  0  0  0
    8.2373  -46.2620   32.1977 C   0  0  0  0  0  0  0  0  0  0  0  0
    9.0658  -47.1033   31.3628 N   0  0  0  0  0  0  0  0  0  0  0  0
    8.9274  -48.5182   31.4886 C   0  0  0  0  0  0  0  0  0  0  0  0
    8.2137  -49.0611   32.3664 O   0  0  0  0  0  0  0  0  0  0  0  0
    9.6612  -49.3772   30.5351 C   0  0  0  0  0  0  0  0  0  0  0  0
    9.4189  -50.7348   30.6750 C   0  0  0  0  0  0  0  0  0  0  0  0
   10.0616  -51.6089   29.8186 C   0  0  0  0  0  0  0  0  0  0  0  0
   10.9267  -51.1422   28.8446 C   0  0  0  0  0  0  0  0  0  0  0  0
   11.1360  -49.7693   28.7457 C   0  0  0  0  0  0  0  0  0  0  0  0
   10.5071  -48.8881   29.5864 C   0  0  0  0  0  0  0  0  0  0  0  0
   11.5730  -52.0393   27.9813 O   0  0  0  0  0  0  0  0  0  0  0  0
    9.8336  -52.9745   29.9407 O   0  0  0  0  0  0  0  0  0  0  0  0
    8.3340  -51.3559   31.8918 Cl  0  0  0  0  0  0  0  0  0  0  0  0
    4.6320  -49.5987   29.9946 C   0  0  0  0  0  0  0  0  0  0  0  0
    4.5704  -50.7657   29.5614 O   0  0  0  0  0  0  0  0  0  0  0  0
    5.3472  -49.5018   31.2209 O   0  0  0  0  0  0  0  0  0  0  0  0
  1  2  1  0
  2  3  1  0
  2  4  1  0
  4  5  2  0
  4  6  1  0
  2  7  1  0
  7  8  1  0
  8  9  2  3
  9 10  1  0
 10 11  2  0
 11 12  1  0
 12 13  1  0
 13 14  2  0
 13 15  1  0
  9 16  1  0
 16 17  2  0
 16 18  1  0
 18 19  1  0
 19 20  1  0
 20 21  1  0
 21 22  1  0
 22 23  2  0
 21 24  1  0
 24 25  2  0
 25 26  1  0
 26 27  1  0
 25 28  1  0
 28 29  1  0
 29 30  1  0
 30 31  1  0
 31 32  1  0
 32 33  1  0
 29 34  1  0
 34 35  1  0
 35 36  1  0
 36 37  1  0
 37 38  2  0
 37 39  1  0
 39 40  2  0
 40 41  1  0
 41 42  2  0
 42 43  1  0
 43 44  2  0
 42 45  1  0
 41 46  1  0
 40 47  1  0
 24 48  1  0
 48 49  2  0
 48 50  1  0
 14 10  1  0
 22 19  1  0
 27 20  1  0
 33 29  1  0
 44 39  1  0
M  CHG  2  29   1  50  -1
M  END
$$$$
