
     RDKit          3D

 50 54  0  0  0  0  0  0  0  0999 V2000
    6.7654  -41.1269    1.7148 C   0  0  0  0  0  0  0  0  0  0  0  0
    6.6419  -41.9612    2.9591 C   0  0  0  0  0  0  0  0  0  0  0  0
    5.1709  -42.0063    3.3307 C   0  0  0  0  0  0  0  0  0  0  0  0
    7.3984  -41.3169    4.0481 C   0  0  0  0  0  0  0  0  0  0  0  0
    7.8129  -40.1387    3.8516 O   0  0  0  0  0  0  0  0  0  0  0  0
    7.6708  -41.9470    5.2698 O   0  0  0  0  0  0  0  0  0  0  0  0
    7.1654  -43.2693    2.7715 O   0  0  0  0  0  0  0  0  0  0  0  0
    7.4890  -43.7401    1.5426 N   0  0  0  0  0  0  0  0  0  0  0  0
    7.8785  -44.9355    1.2594 C   0  0  0  0  0  0  0  0  0  0  0  0
    8.1977  -45.2855   -0.1326 C   0  0  0  0  0  0  0  0  0  0  0  0
    8.5804  -46.5757   -0.5910 C   0  0  0  0  0  0  0  0  0  0  0  0
    8.8469  -46.4349   -2.3504 S   0  0  0  0  0  0  0  0  0  0  0  0
    8.3924  -44.5696   -2.2641 C   0  0  0  0  0  0  0  0  0  0  0  0
    8.1693  -44.4349   -1.1423 N   0  0  0  0  0  0  0  0  0  0  0  0
    8.4334  -43.8402   -3.5069 N   0  0  0  0  0  0  0  0  0  0  0  0
    8.0013  -45.9001    2.3387 C   0  0  0  0  0  0  0  0  0  0  0  0
    8.8587  -45.8424    3.2558 O   0  0  0  0  0  0  0  0  0  0  0  0
    7.1071  -47.0147    2.4113 N   0  0  0  0  0  0  0  0  0  0  0  0
    7.5874  -48.2821    2.9882 C   0  0  0  0  0  0  0  0  0  0  0  0
    6.6300  -48.8737    3.9665 C   0  0  0  0  0  0  0  0  0  0  0  0
    6.3622  -50.0236    3.1035 N   0  0  0  0  0  0  0  0  0  0  0  0
    7.1977  -49.4132    2.1537 C   0  0  0  0  0  0  0  0  0  0  0  0
    7.4982  -49.7555    0.9642 O   0  0  0  0  0  0  0  0  0  0  0  0
    5.4935  -51.0791    3.6001 C   0  0  0  0  0  0  0  0  0  0  0  0
    5.3747  -51.3348    4.8910 C   0  0  0  0  0  0  0  0  0  0  0  0
    6.0739  -50.6169    5.9871 C   0  0  0  0  0  0  0  0  0  0  0  0
    7.4797  -49.6612    5.3959 S   0  0  0  0  0  0  0  0  0  0  0  0
    4.5221  -52.4757    5.3396 C   0  0  0  0  0  0  0  0  0  0  0  0
    5.0394  -53.7885    5.0089 N   0  0  0  0  0  0  0  0  0  0  0  0
    5.5591  -53.8947    3.6999 C   0  0  0  0  0  0  0  0  0  0  0  0
    6.9682  -54.4405    3.7525 C   0  0  0  0  0  0  0  0  0  0  0  0
    7.2141  -54.7769    5.1832 C   0  0  0  0  0  0  0  0  0  0  0  0
    6.0864  -54.1829    5.9423 C   0  0  0  0  0  0  0  0  0  0  0  0
    3.9641  -54.7293    5.2072 C   0  0  0  0  0  0  0  0  0  0  0  0
    4.2132  -55.8542    6.1578 C   0  0  0  0  0  0  0  0  0  0  0  0
    3.0241  -56.3785    6.7922 N   0  0  0  0  0  0  0  0  0  0  0  0
    2.2246  -55.4830    7.5640 C   0  0  0  0  0  0  0  0  0  0  0  0
    2.5267  -54.2787    7.7457 O   0  0  0  0  0  0  0  0  0  0  0  0
    0.9834  -56.0061    8.1729 C   0  0  0  0  0  0  0  0  0  0  0  0
    0.1732  -55.0426    8.7532 C   0  0  0  0  0  0  0  0  0  0  0  0
   -1.0108  -55.4466    9.3412 C   0  0  0  0  0  0  0  0  0  0  0  0
   -1.3801  -56.7802    9.3516 C   0  0  0  0  0  0  0  0  0  0  0  0
   -0.5311  -57.7085    8.7553 C   0  0  0  0  0  0  0  0  0  0  0  0
    0.6466  -57.3257    8.1676 C   0  0  0  0  0  0  0  0  0  0  0  0
   -2.5842  -57.1777    9.9516 O   0  0  0  0  0  0  0  0  0  0  0  0
   -1.8387  -54.4976    9.9291 O   0  0  0  0  0  0  0  0  0  0  0  0
    0.6092  -53.3535    8.7567 Cl  0  0  0  0  0  0  0  0  0  0  0  0
    4.7638  -51.7730    2.5405 C   0  0  0  0  0  0  0  0  0  0  0  0
    3.5545  -52.0746    2.5457 O   0  0  0  0  0  0  0  0  0  0  0  0
    5.4294  -52.1800    1.3505 O   0  0  0  0  0  0  0  0  0  0  0  0
  1  2  1  0
  2  3  1  0
  2  4  1  0
  4  5  2  0
  4  6  1  0
  2  7  1  0
  7  8  1  0
  8  9  2  3
  9 10  1  0
 10 11  2  0
 11 12  1  0
 12 13  1  0
 13 14  2  0
 13 15  1  0
  9 16  1  0
 16 17  2  0
 16 18  1  0
 18 19  1  0
 19 20  1  0
 20 21  1  0
 21 22  1  0
 22 23  2  0
 21 24  1  0
 24 25  2  0
 25 26  1  0
 26 27  1  0
 25 28  1  0
 28 29  1  0
 29 30  1  0
 30 31  1  0
 31 32  1  0
 32 33  1  0
 29 34  1  0
 34 35  1  0
 35 36  1  0
 36 37  1  0
 37 38  2  0
 37 39  1  0
 39 40  2  0
 40 41  1  0
 41 42  2  0
 42 43  1  0
 43 44  2  0
 42 45  1  0
 41 46  1  0
 40 47  1  0
 24 48  1  0
 48 49  2  0
 48 50  1  0
 14 10  1  0
 22 19  1  0
 27 20  1  0
 33 29  1  0
 44 39  1  0
M  CHG  2  29   1  50  -1
M  END
$$$$
