
     RDKit          3D

 50 54  0  0  0  0  0  0  0  0999 V2000
   13.5296  -52.5644   27.8942 C   0  0  0  0  0  0  0  0  0  0  0  0
   13.1116  -53.7486   28.7204 C   0  0  0  0  0  0  0  0  0  0  0  0
   14.2483  -54.0575   29.6777 C   0  0  0  0  0  0  0  0  0  0  0  0
   12.8976  -54.9049   27.8312 C   0  0  0  0  0  0  0  0  0  0  0  0
   11.7554  -55.0303   27.3035 O   0  0  0  0  0  0  0  0  0  0  0  0
   13.8917  -55.8525   27.5528 O   0  0  0  0  0  0  0  0  0  0  0  0
   11.9007  -53.5012   29.4225 O   0  0  0  0  0  0  0  0  0  0  0  0
   11.8500  -52.6645   30.4872 N   0  0  0  0  0  0  0  0  0  0  0  0
   10.8944  -52.5779   31.3475 C   0  0  0  0  0  0  0  0  0  0  0  0
   10.8464  -51.4322   32.2680 C   0  0  0  0  0  0  0  0  0  0  0  0
    9.9887  -51.3167   33.3959 C   0  0  0  0  0  0  0  0  0  0  0  0
   10.3452  -49.7384   34.1497 S   0  0  0  0  0  0  0  0  0  0  0  0
   11.6685  -49.3984   32.7982 C   0  0  0  0  0  0  0  0  0  0  0  0
   11.6022  -50.3548   32.1600 N   0  0  0  0  0  0  0  0  0  0  0  0
   12.3705  -48.1425   32.8880 N   0  0  0  0  0  0  0  0  0  0  0  0
    9.8820  -53.6196   31.3684 C   0  0  0  0  0  0  0  0  0  0  0  0
    8.8161  -53.5682   32.0322 O   0  0  0  0  0  0  0  0  0  0  0  0
   10.0605  -54.8104   30.5955 N   0  0  0  0  0  0  0  0  0  0  0  0
    9.4984  -56.0780   31.0924 C   0  0  0  0  0  0  0  0  0  0  0  0
    8.9462  -56.9342   30.0034 C   0  0  0  0  0  0  0  0  0  0  0  0
    9.9666  -57.9615   30.2090 N   0  0  0  0  0  0  0  0  0  0  0  0
   10.5288  -57.1074   31.1719 C   0  0  0  0  0  0  0  0  0  0  0  0
   11.5890  -57.2189   31.8690 O   0  0  0  0  0  0  0  0  0  0  0  0
    9.8889  -59.1857   29.4275 C   0  0  0  0  0  0  0  0  0  0  0  0
    8.7387  -59.6516   28.9739 C   0  0  0  0  0  0  0  0  0  0  0  0
    7.4069  -59.0270   29.1780 C   0  0  0  0  0  0  0  0  0  0  0  0
    7.4123  -57.8156   30.5091 S   0  0  0  0  0  0  0  0  0  0  0  0
    8.7102  -60.9499   28.2367 C   0  0  0  0  0  0  0  0  0  0  0  0
    7.8006  -61.9384   28.7806 N   0  0  0  0  0  0  0  0  0  0  0  0
    8.2222  -62.5039   30.0043 C   0  0  0  0  0  0  0  0  0  0  0  0
    7.1232  -62.3706   31.0342 C   0  0  0  0  0  0  0  0  0  0  0  0
    5.9577  -61.7969   30.3039 C   0  0  0  0  0  0  0  0  0  0  0  0
    6.4751  -61.3678   28.9814 C   0  0  0  0  0  0  0  0  0  0  0  0
    7.6379  -62.9614   27.7768 C   0  0  0  0  0  0  0  0  0  0  0  0
    8.4747  -64.1904   27.9183 C   0  0  0  0  0  0  0  0  0  0  0  0
    9.8861  -63.9866   27.6781 N   0  0  0  0  0  0  0  0  0  0  0  0
   10.7282  -63.7311   28.8017 C   0  0  0  0  0  0  0  0  0  0  0  0
   10.3009  -63.6819   29.9805 O   0  0  0  0  0  0  0  0  0  0  0  0
   12.1703  -63.5172   28.5568 C   0  0  0  0  0  0  0  0  0  0  0  0
   12.9651  -63.5804   29.6908 C   0  0  0  0  0  0  0  0  0  0  0  0
   14.3278  -63.3966   29.5494 C   0  0  0  0  0  0  0  0  0  0  0  0
   14.8871  -63.1550   28.3070 C   0  0  0  0  0  0  0  0  0  0  0  0
   14.0452  -63.1010   27.1994 C   0  0  0  0  0  0  0  0  0  0  0  0
   12.6918  -63.2811   27.3210 C   0  0  0  0  0  0  0  0  0  0  0  0
   16.2715  -62.9701   28.1765 O   0  0  0  0  0  0  0  0  0  0  0  0
   15.1439  -63.4557   30.6728 O   0  0  0  0  0  0  0  0  0  0  0  0
   12.2918  -63.8837   31.2713 Cl  0  0  0  0  0  0  0  0  0  0  0  0
   11.1937  -59.7964   29.1798 C   0  0  0  0  0  0  0  0  0  0  0  0
   12.2912  -59.2083   29.1257 O   0  0  0  0  0  0  0  0  0  0  0  0
   11.3076  -61.1989   28.9679 O   0  0  0  0  0  0  0  0  0  0  0  0
  1  2  1  0
  2  3  1  0
  2  4  1  0
  4  5  2  0
  4  6  1  0
  2  7  1  0
  7  8  1  0
  8  9  2  3
  9 10  1  0
 10 11  2  0
 11 12  1  0
 12 13  1  0
 13 14  2  0
 13 15  1  0
  9 16  1  0
 16 17  2  0
 16 18  1  0
 18 19  1  0
 19 20  1  0
 20 21  1  0
 21 22  1  0
 22 23  2  0
 21 24  1  0
 24 25  2  0
 25 26  1  0
 26 27  1  0
 25 28  1  0
 28 29  1  0
 29 30  1  0
 30 31  1  0
 31 32  1  0
 32 33  1  0
 29 34  1  0
 34 35  1  0
 35 36  1  0
 36 37  1  0
 37 38  2  0
 37 39  1  0
 39 40  2  0
 40 41  1  0
 41 42  2  0
 42 43  1  0
 43 44  2  0
 42 45  1  0
 41 46  1  0
 40 47  1  0
 24 48  1  0
 48 49  2  0
 48 50  1  0
 14 10  1  0
 22 19  1  0
 27 20  1  0
 33 29  1  0
 44 39  1  0
M  CHG  2  29   1  50  -1
M  END
$$$$
