
     RDKit          3D

 50 54  0  0  0  0  0  0  0  0999 V2000
   -2.5287  -39.0062   -2.4610 C   0  0  0  0  0  0  0  0  0  0  0  0
   -2.7688  -38.4029   -1.1052 C   0  0  0  0  0  0  0  0  0  0  0  0
   -4.2623  -38.1666   -0.9722 C   0  0  0  0  0  0  0  0  0  0  0  0
   -2.0633  -37.1112   -1.0209 C   0  0  0  0  0  0  0  0  0  0  0  0
   -0.9334  -37.1006   -0.4535 O   0  0  0  0  0  0  0  0  0  0  0  0
   -2.5857  -35.9171   -1.5356 O   0  0  0  0  0  0  0  0  0  0  0  0
   -2.2854  -39.2391   -0.0624 O   0  0  0  0  0  0  0  0  0  0  0  0
   -2.7362  -39.1270    1.2106 N   0  0  0  0  0  0  0  0  0  0  0  0
   -2.2584  -39.7256    2.2470 C   0  0  0  0  0  0  0  0  0  0  0  0
   -2.5619  -39.2086    3.5897 C   0  0  0  0  0  0  0  0  0  0  0  0
   -1.9818  -39.6723    4.8020 C   0  0  0  0  0  0  0  0  0  0  0  0
   -2.7034  -38.7047    6.1170 S   0  0  0  0  0  0  0  0  0  0  0  0
   -3.7521  -37.7425    4.8256 C   0  0  0  0  0  0  0  0  0  0  0  0
   -3.4218  -38.2381    3.8399 N   0  0  0  0  0  0  0  0  0  0  0  0
   -4.6273  -36.7200    5.3422 N   0  0  0  0  0  0  0  0  0  0  0  0
   -1.4393  -40.9090    2.0496 C   0  0  0  0  0  0  0  0  0  0  0  0
   -1.8489  -42.0911    2.1701 O   0  0  0  0  0  0  0  0  0  0  0  0
   -0.0606  -40.7767    1.6904 N   0  0  0  0  0  0  0  0  0  0  0  0
    0.8725  -41.8690    2.0159 C   0  0  0  0  0  0  0  0  0  0  0  0
    2.1077  -41.8449    1.1807 C   0  0  0  0  0  0  0  0  0  0  0  0
    2.9552  -41.5383    2.3324 N   0  0  0  0  0  0  0  0  0  0  0  0
    1.7756  -41.4772    3.0923 C   0  0  0  0  0  0  0  0  0  0  0  0
    1.5855  -41.1762    4.3153 O   0  0  0  0  0  0  0  0  0  0  0  0
    4.3952  -41.4711    2.1386 C   0  0  0  0  0  0  0  0  0  0  0  0
    5.0039  -42.1600    1.1896 C   0  0  0  0  0  0  0  0  0  0  0  0
    4.3450  -43.0666    0.2151 C   0  0  0  0  0  0  0  0  0  0  0  0
    2.6827  -43.5321    0.7242 S   0  0  0  0  0  0  0  0  0  0  0  0
    6.4923  -42.1067    1.0813 C   0  0  0  0  0  0  0  0  0  0  0  0
    7.2042  -42.5177    2.2748 N   0  0  0  0  0  0  0  0  0  0  0  0
    7.0398  -41.6494    3.3766 C   0  0  0  0  0  0  0  0  0  0  0  0
    6.5727  -42.4351    4.5811 C   0  0  0  0  0  0  0  0  0  0  0  0
    6.5908  -43.8640    4.1584 C   0  0  0  0  0  0  0  0  0  0  0  0
    6.7938  -43.8530    2.6889 C   0  0  0  0  0  0  0  0  0  0  0  0
    8.5976  -42.6298    1.9190 C   0  0  0  0  0  0  0  0  0  0  0  0
    9.0504  -43.9354    1.3524 C   0  0  0  0  0  0  0  0  0  0  0  0
    8.5342  -44.2290    0.0339 N   0  0  0  0  0  0  0  0  0  0  0  0
    7.5145  -45.2208   -0.0822 C   0  0  0  0  0  0  0  0  0  0  0  0
    7.0014  -45.7946    0.9088 O   0  0  0  0  0  0  0  0  0  0  0  0
    7.0453  -45.5819   -1.4367 C   0  0  0  0  0  0  0  0  0  0  0  0
    5.9664  -46.4518   -1.4622 C   0  0  0  0  0  0  0  0  0  0  0  0
    5.4612  -46.8367   -2.6899 C   0  0  0  0  0  0  0  0  0  0  0  0
    6.0177  -46.3664   -3.8664 C   0  0  0  0  0  0  0  0  0  0  0  0
    7.1003  -45.4947   -3.7863 C   0  0  0  0  0  0  0  0  0  0  0  0
    7.6140  -45.1024   -2.5775 C   0  0  0  0  0  0  0  0  0  0  0  0
    5.4960  -46.7643   -5.1063 O   0  0  0  0  0  0  0  0  0  0  0  0
    4.3797  -47.7083   -2.7394 O   0  0  0  0  0  0  0  0  0  0  0  0
    5.2413  -47.0627    0.0022 Cl  0  0  0  0  0  0  0  0  0  0  0  0
    5.0598  -40.5528    3.0615 C   0  0  0  0  0  0  0  0  0  0  0  0
    4.5571  -40.0190    4.0693 O   0  0  0  0  0  0  0  0  0  0  0  0
    6.4177  -40.1794    2.8581 O   0  0  0  0  0  0  0  0  0  0  0  0
  1  2  1  0
  2  3  1  0
  2  4  1  0
  4  5  2  0
  4  6  1  0
  2  7  1  0
  7  8  1  0
  8  9  2  3
  9 10  1  0
 10 11  2  0
 11 12  1  0
 12 13  1  0
 13 14  2  0
 13 15  1  0
  9 16  1  0
 16 17  2  0
 16 18  1  0
 18 19  1  0
 19 20  1  0
 20 21  1  0
 21 22  1  0
 22 23  2  0
 21 24  1  0
 24 25  2  0
 25 26  1  0
 26 27  1  0
 25 28  1  0
 28 29  1  0
 29 30  1  0
 30 31  1  0
 31 32  1  0
 32 33  1  0
 29 34  1  0
 34 35  1  0
 35 36  1  0
 36 37  1  0
 37 38  2  0
 37 39  1  0
 39 40  2  0
 40 41  1  0
 41 42  2  0
 42 43  1  0
 43 44  2  0
 42 45  1  0
 41 46  1  0
 40 47  1  0
 24 48  1  0
 48 49  2  0
 48 50  1  0
 14 10  1  0
 22 19  1  0
 27 20  1  0
 33 29  1  0
 44 39  1  0
M  CHG  2  29   1  50  -1
M  END
$$$$
