
     RDKit          3D

 50 54  0  0  0  0  0  0  0  0999 V2000
    5.1088  -53.2334   32.7266 C   0  0  0  0  0  0  0  0  0  0  0  0
    5.8725  -52.8842   31.4797 C   0  0  0  0  0  0  0  0  0  0  0  0
    5.0662  -51.8376   30.7324 C   0  0  0  0  0  0  0  0  0  0  0  0
    6.0009  -54.0893   30.6402 C   0  0  0  0  0  0  0  0  0  0  0  0
    7.1597  -54.4007   30.2417 O   0  0  0  0  0  0  0  0  0  0  0  0
    4.9096  -54.8884   30.2737 O   0  0  0  0  0  0  0  0  0  0  0  0
    7.1796  -52.4114   31.7766 O   0  0  0  0  0  0  0  0  0  0  0  0
    7.3853  -51.3108   32.5399 N   0  0  0  0  0  0  0  0  0  0  0  0
    8.5198  -50.7507   32.7850 C   0  0  0  0  0  0  0  0  0  0  0  0
    8.5634  -49.5123   33.5766 C   0  0  0  0  0  0  0  0  0  0  0  0
    9.7309  -48.7473   33.8465 C   0  0  0  0  0  0  0  0  0  0  0  0
    9.2138  -47.3597   34.8432 S   0  0  0  0  0  0  0  0  0  0  0  0
    7.4019  -47.9972   34.7804 C   0  0  0  0  0  0  0  0  0  0  0  0
    7.5112  -48.9501   34.1430 N   0  0  0  0  0  0  0  0  0  0  0  0
    6.4189  -47.2090   35.4809 N   0  0  0  0  0  0  0  0  0  0  0  0
    9.7278  -51.3765   32.2756 C   0  0  0  0  0  0  0  0  0  0  0  0
   10.8777  -50.8739   32.3444 O   0  0  0  0  0  0  0  0  0  0  0  0
    9.6609  -52.6573   31.6414 N   0  0  0  0  0  0  0  0  0  0  0  0
   10.8672  -53.1998   30.9933 C   0  0  0  0  0  0  0  0  0  0  0  0
   11.1395  -54.6173   31.3681 C   0  0  0  0  0  0  0  0  0  0  0  0
   10.8845  -55.0909   30.0081 N   0  0  0  0  0  0  0  0  0  0  0  0
   10.5455  -53.7661   29.6881 C   0  0  0  0  0  0  0  0  0  0  0  0
   10.1052  -53.2552   28.6076 O   0  0  0  0  0  0  0  0  0  0  0  0
   11.0923  -56.4996   29.7115 C   0  0  0  0  0  0  0  0  0  0  0  0
   11.9622  -57.2328   30.3834 C   0  0  0  0  0  0  0  0  0  0  0  0
   12.8224  -56.7578   31.4970 C   0  0  0  0  0  0  0  0  0  0  0  0
   12.9365  -54.9627   31.5601 S   0  0  0  0  0  0  0  0  0  0  0  0
   12.1845  -58.6559   29.9896 C   0  0  0  0  0  0  0  0  0  0  0  0
   12.9708  -58.8384   28.7860 N   0  0  0  0  0  0  0  0  0  0  0  0
   13.2020  -57.6503   28.0581 C   0  0  0  0  0  0  0  0  0  0  0  0
   14.6847  -57.4807   27.8146 C   0  0  0  0  0  0  0  0  0  0  0  0
   15.3210  -58.7220   28.3390 C   0  0  0  0  0  0  0  0  0  0  0  0
   14.2634  -59.4345   29.0971 C   0  0  0  0  0  0  0  0  0  0  0  0
   12.2793  -59.8075   27.9715 C   0  0  0  0  0  0  0  0  0  0  0  0
   12.0379  -61.1524   28.5748 C   0  0  0  0  0  0  0  0  0  0  0  0
   12.2803  -61.2240   29.9986 N   0  0  0  0  0  0  0  0  0  0  0  0
   11.1526  -61.2101   30.8731 C   0  0  0  0  0  0  0  0  0  0  0  0
    9.9695  -61.1256   30.4635 O   0  0  0  0  0  0  0  0  0  0  0  0
   11.3983  -61.3015   32.3280 C   0  0  0  0  0  0  0  0  0  0  0  0
   10.2612  -61.1993   33.1141 C   0  0  0  0  0  0  0  0  0  0  0  0
   10.4017  -61.2801   34.4868 C   0  0  0  0  0  0  0  0  0  0  0  0
   11.6464  -61.4584   35.0644 C   0  0  0  0  0  0  0  0  0  0  0  0
   12.7572  -61.5551   34.2306 C   0  0  0  0  0  0  0  0  0  0  0  0
   12.6364  -61.4772   32.8674 C   0  0  0  0  0  0  0  0  0  0  0  0
   11.7760  -61.5389   36.4589 O   0  0  0  0  0  0  0  0  0  0  0  0
    9.2751  -61.1802   35.2946 O   0  0  0  0  0  0  0  0  0  0  0  0
    8.6775  -60.9748   32.4178 Cl  0  0  0  0  0  0  0  0  0  0  0  0
   10.2264  -56.9990   28.6449 C   0  0  0  0  0  0  0  0  0  0  0  0
    9.6548  -56.3177   27.7716 O   0  0  0  0  0  0  0  0  0  0  0  0
    9.9577  -58.3910   28.5230 O   0  0  0  0  0  0  0  0  0  0  0  0
  1  2  1  0
  2  3  1  0
  2  4  1  0
  4  5  2  0
  4  6  1  0
  2  7  1  0
  7  8  1  0
  8  9  2  3
  9 10  1  0
 10 11  2  0
 11 12  1  0
 12 13  1  0
 13 14  2  0
 13 15  1  0
  9 16  1  0
 16 17  2  0
 16 18  1  0
 18 19  1  0
 19 20  1  0
 20 21  1  0
 21 22  1  0
 22 23  2  0
 21 24  1  0
 24 25  2  0
 25 26  1  0
 26 27  1  0
 25 28  1  0
 28 29  1  0
 29 30  1  0
 30 31  1  0
 31 32  1  0
 32 33  1  0
 29 34  1  0
 34 35  1  0
 35 36  1  0
 36 37  1  0
 37 38  2  0
 37 39  1  0
 39 40  2  0
 40 41  1  0
 41 42  2  0
 42 43  1  0
 43 44  2  0
 42 45  1  0
 41 46  1  0
 40 47  1  0
 24 48  1  0
 48 49  2  0
 48 50  1  0
 14 10  1  0
 22 19  1  0
 27 20  1  0
 33 29  1  0
 44 39  1  0
M  CHG  2  29   1  50  -1
M  END
$$$$
