
     RDKit          3D

 50 54  0  0  0  0  0  0  0  0999 V2000
   37.1873  -37.9193   36.9288 C   0  0  0  0  0  0  0  0  0  0  0  0
   38.0792  -39.0610   36.5278 C   0  0  0  0  0  0  0  0  0  0  0  0
   37.1853  -40.2489   36.2218 C   0  0  0  0  0  0  0  0  0  0  0  0
   38.9662  -39.3985   37.6560 C   0  0  0  0  0  0  0  0  0  0  0  0
   40.2085  -39.4473   37.4258 O   0  0  0  0  0  0  0  0  0  0  0  0
   38.4955  -39.6621   38.9493 O   0  0  0  0  0  0  0  0  0  0  0  0
   38.8926  -38.7280   35.4108 O   0  0  0  0  0  0  0  0  0  0  0  0
   39.6946  -39.6422   34.8128 N   0  0  0  0  0  0  0  0  0  0  0  0
   40.4813  -39.4329   33.8138 C   0  0  0  0  0  0  0  0  0  0  0  0
   41.7181  -40.2177   33.6853 C   0  0  0  0  0  0  0  0  0  0  0  0
   42.5432  -40.2723   32.5288 C   0  0  0  0  0  0  0  0  0  0  0  0
   43.8987  -41.3662   32.9190 S   0  0  0  0  0  0  0  0  0  0  0  0
   43.1662  -41.6380   34.6749 C   0  0  0  0  0  0  0  0  0  0  0  0
   42.2221  -40.9794   34.6390 N   0  0  0  0  0  0  0  0  0  0  0  0
   43.8993  -42.5212   35.5471 N   0  0  0  0  0  0  0  0  0  0  0  0
   40.1075  -38.4274   32.8341 C   0  0  0  0  0  0  0  0  0  0  0  0
   40.7477  -37.3681   32.6159 O   0  0  0  0  0  0  0  0  0  0  0  0
   38.9359  -38.6061   32.0324 N   0  0  0  0  0  0  0  0  0  0  0  0
   39.0058  -38.3233   30.5885 C   0  0  0  0  0  0  0  0  0  0  0  0
   37.6864  -38.4572   29.9067 C   0  0  0  0  0  0  0  0  0  0  0  0
   37.6254  -37.0268   29.6085 N   0  0  0  0  0  0  0  0  0  0  0  0
   38.8244  -36.8995   30.3288 C   0  0  0  0  0  0  0  0  0  0  0  0
   39.5064  -35.8693   30.6384 O   0  0  0  0  0  0  0  0  0  0  0  0
   36.5122  -36.5279   28.8163 C   0  0  0  0  0  0  0  0  0  0  0  0
   35.8863  -37.2892   27.9362 C   0  0  0  0  0  0  0  0  0  0  0  0
   36.2033  -38.7081   27.6333 C   0  0  0  0  0  0  0  0  0  0  0  0
   37.8332  -39.1899   28.2253 S   0  0  0  0  0  0  0  0  0  0  0  0
   34.7957  -36.7038   27.1009 C   0  0  0  0  0  0  0  0  0  0  0  0
   34.4763  -37.4552   25.9036 N   0  0  0  0  0  0  0  0  0  0  0  0
   33.9754  -38.7528   26.1491 C   0  0  0  0  0  0  0  0  0  0  0  0
   32.6619  -38.9391   25.4237 C   0  0  0  0  0  0  0  0  0  0  0  0
   32.4707  -37.7005   24.6174 C   0  0  0  0  0  0  0  0  0  0  0  0
   33.5004  -36.7425   25.0896 C   0  0  0  0  0  0  0  0  0  0  0  0
   35.6785  -37.5160   25.1088 C   0  0  0  0  0  0  0  0  0  0  0  0
   36.4079  -36.2324   24.8821 C   0  0  0  0  0  0  0  0  0  0  0  0
   35.5563  -35.0681   24.7799 N   0  0  0  0  0  0  0  0  0  0  0  0
   34.8482  -34.8595   23.5585 C   0  0  0  0  0  0  0  0  0  0  0  0
   34.8853  -35.6673   22.5990 O   0  0  0  0  0  0  0  0  0  0  0  0
   34.0339  -33.6328   23.4263 C   0  0  0  0  0  0  0  0  0  0  0  0
   33.2816  -33.5605   22.2644 C   0  0  0  0  0  0  0  0  0  0  0  0
   32.4867  -32.4474   22.0642 C   0  0  0  0  0  0  0  0  0  0  0  0
   32.4419  -31.4288   22.9997 C   0  0  0  0  0  0  0  0  0  0  0  0
   33.2168  -31.5497   24.1501 C   0  0  0  0  0  0  0  0  0  0  0  0
   34.0106  -32.6463   24.3650 C   0  0  0  0  0  0  0  0  0  0  0  0
   31.6313  -30.3042   22.7851 O   0  0  0  0  0  0  0  0  0  0  0  0
   31.7238  -32.3537   20.9063 O   0  0  0  0  0  0  0  0  0  0  0  0
   33.3149  -34.8273   21.0655 Cl  0  0  0  0  0  0  0  0  0  0  0  0
   36.1564  -35.1446   29.1270 C   0  0  0  0  0  0  0  0  0  0  0  0
   35.7170  -34.7161   30.2118 O   0  0  0  0  0  0  0  0  0  0  0  0
   36.2957  -34.1237   28.1457 O   0  0  0  0  0  0  0  0  0  0  0  0
  1  2  1  0
  2  3  1  0
  2  4  1  0
  4  5  2  0
  4  6  1  0
  2  7  1  0
  7  8  1  0
  8  9  2  3
  9 10  1  0
 10 11  2  0
 11 12  1  0
 12 13  1  0
 13 14  2  0
 13 15  1  0
  9 16  1  0
 16 17  2  0
 16 18  1  0
 18 19  1  0
 19 20  1  0
 20 21  1  0
 21 22  1  0
 22 23  2  0
 21 24  1  0
 24 25  2  0
 25 26  1  0
 26 27  1  0
 25 28  1  0
 28 29  1  0
 29 30  1  0
 30 31  1  0
 31 32  1  0
 32 33  1  0
 29 34  1  0
 34 35  1  0
 35 36  1  0
 36 37  1  0
 37 38  2  0
 37 39  1  0
 39 40  2  0
 40 41  1  0
 41 42  2  0
 42 43  1  0
 43 44  2  0
 42 45  1  0
 41 46  1  0
 40 47  1  0
 24 48  1  0
 48 49  2  0
 48 50  1  0
 14 10  1  0
 22 19  1  0
 27 20  1  0
 33 29  1  0
 44 39  1  0
M  CHG  2  29   1  50  -1
M  END
$$$$
