
     RDKit          3D

 29 28  0  0  0  0  0  0  0  0999 V2000
   14.7144   -9.8594  -10.2142 C   0  0  0  0  0  0  0  0  0  0  0  0
   15.5988  -10.4521  -11.2140 C   0  0  0  0  0  0  0  0  0  0  0  0
   16.9735  -10.8474  -10.7986 C   0  0  0  0  0  0  0  0  0  0  0  0
   17.8754  -11.4882  -11.7661 C   0  0  0  0  0  0  0  0  0  0  0  0
   19.1883  -11.6897  -10.9744 C   0  0  0  0  0  0  0  0  0  0  0  0
   19.4667  -10.4864  -10.3837 F   0  0  0  0  0  0  0  0  0  0  0  0
   19.0096  -12.6371  -10.0145 F   0  0  0  0  0  0  0  0  0  0  0  0
   20.5118  -12.1087  -12.0337 S   0  0  0  0  0  0  0  0  0  0  0  0
   21.6919  -12.6402  -11.2568 O   0  0  0  0  0  0  0  0  0  0  0  0
   20.0359  -13.2344  -12.9089 O   0  0  0  0  0  0  0  0  0  0  0  0
   20.9793  -10.8535  -13.0380 O   0  0  0  0  0  0  0  0  0  0  0  0
   17.5500  -12.7769  -12.1420 F   0  0  0  0  0  0  0  0  0  0  0  0
   18.2616  -10.6910  -12.8205 F   0  0  0  0  0  0  0  0  0  0  0  0
   17.6149   -9.6742  -10.3882 F   0  0  0  0  0  0  0  0  0  0  0  0
   16.9446  -11.6247   -9.6531 F   0  0  0  0  0  0  0  0  0  0  0  0
   15.6933   -9.6526  -12.3217 F   0  0  0  0  0  0  0  0  0  0  0  0
   14.9429  -11.6300  -11.6492 F   0  0  0  0  0  0  0  0  0  0  0  0
   13.3670   -9.5021  -10.7526 C   0  0  0  0  0  0  0  0  0  0  0  0
   12.3168   -8.9768   -9.8778 C   0  0  0  0  0  0  0  0  0  0  0  0
   10.9906   -8.9563  -10.7030 C   0  0  0  0  0  0  0  0  0  0  0  0
    9.9531   -8.8717   -9.8100 F   0  0  0  0  0  0  0  0  0  0  0  0
   10.9199  -10.1491  -11.3961 F   0  0  0  0  0  0  0  0  0  0  0  0
   11.0294   -7.8487  -11.4970 F   0  0  0  0  0  0  0  0  0  0  0  0
   12.4513   -7.7440   -9.3479 F   0  0  0  0  0  0  0  0  0  0  0  0
   11.9533   -9.8474   -8.8320 F   0  0  0  0  0  0  0  0  0  0  0  0
   12.7915  -10.6331  -11.3896 F   0  0  0  0  0  0  0  0  0  0  0  0
   13.4966   -8.6260  -11.8620 F   0  0  0  0  0  0  0  0  0  0  0  0
   14.5240  -10.6496   -9.0865 F   0  0  0  0  0  0  0  0  0  0  0  0
   15.2234   -8.6541   -9.6810 F   0  0  0  0  0  0  0  0  0  0  0  0
  1  2  1  0
  2  3  1  0
  3  4  1  0
  4  5  1  0
  5  6  1  0
  5  7  1  0
  5  8  1  0
  8  9  2  0
  8 10  2  0
  8 11  1  0
  4 12  1  0
  4 13  1  0
  3 14  1  0
  3 15  1  0
  2 16  1  0
  2 17  1  0
  1 18  1  0
 18 19  1  0
 19 20  1  0
 20 21  1  0
 20 22  1  0
 20 23  1  0
 19 24  1  0
 19 25  1  0
 18 26  1  0
 18 27  1  0
  1 28  1  0
  1 29  1  0
M  END
$$$$
