
     RDKit          3D

 29 28  0  0  0  0  0  0  0  0999 V2000
   -3.2692   19.3701    8.0189 C   0  0  0  0  0  0  0  0  0  0  0  0
   -3.7034   20.7308    7.7135 C   0  0  0  0  0  0  0  0  0  0  0  0
   -5.0554   21.1615    8.1663 C   0  0  0  0  0  0  0  0  0  0  0  0
   -5.5263   22.5230    7.8752 C   0  0  0  0  0  0  0  0  0  0  0  0
   -6.9308   22.5770    8.5197 C   0  0  0  0  0  0  0  0  0  0  0  0
   -7.6570   21.5725    7.9381 F   0  0  0  0  0  0  0  0  0  0  0  0
   -6.8351   22.3527    9.8582 F   0  0  0  0  0  0  0  0  0  0  0  0
   -7.7233   24.0980    8.1914 S   0  0  0  0  0  0  0  0  0  0  0  0
   -6.9035   25.2645    8.6875 O   0  0  0  0  0  0  0  0  0  0  0  0
   -7.8040   24.2388    6.6969 O   0  0  0  0  0  0  0  0  0  0  0  0
   -9.2853   24.1736    8.7891 O   0  0  0  0  0  0  0  0  0  0  0  0
   -4.8608   23.5487    8.5177 F   0  0  0  0  0  0  0  0  0  0  0  0
   -5.7785   22.7814    6.5462 F   0  0  0  0  0  0  0  0  0  0  0  0
   -5.9702   20.2959    7.5579 F   0  0  0  0  0  0  0  0  0  0  0  0
   -5.2276   20.9240    9.5195 F   0  0  0  0  0  0  0  0  0  0  0  0
   -3.5902   20.9934    6.3744 F   0  0  0  0  0  0  0  0  0  0  0  0
   -2.7639   21.5797    8.3489 F   0  0  0  0  0  0  0  0  0  0  0  0
   -2.1174   18.9143    7.1831 C   0  0  0  0  0  0  0  0  0  0  0  0
   -2.0154   17.5268    6.7264 C   0  0  0  0  0  0  0  0  0  0  0  0
   -0.5823   17.3356    6.1349 C   0  0  0  0  0  0  0  0  0  0  0  0
   -0.4381   16.0060    5.8310 F   0  0  0  0  0  0  0  0  0  0  0  0
    0.3189   17.6948    7.1181 F   0  0  0  0  0  0  0  0  0  0  0  0
   -0.5103   18.0947    5.0047 F   0  0  0  0  0  0  0  0  0  0  0  0
   -2.8740   17.0726    5.7910 F   0  0  0  0  0  0  0  0  0  0  0  0
   -1.9895   16.5805    7.7693 F   0  0  0  0  0  0  0  0  0  0  0  0
   -0.8996   19.1733    7.8656 F   0  0  0  0  0  0  0  0  0  0  0  0
   -1.9608   19.7627    6.0559 F   0  0  0  0  0  0  0  0  0  0  0  0
   -2.9309   19.1691    9.3521 F   0  0  0  0  0  0  0  0  0  0  0  0
   -4.2820   18.4108    7.7951 F   0  0  0  0  0  0  0  0  0  0  0  0
  1  2  1  0
  2  3  1  0
  3  4  1  0
  4  5  1  0
  5  6  1  0
  5  7  1  0
  5  8  1  0
  8  9  2  0
  8 10  2  0
  8 11  1  0
  4 12  1  0
  4 13  1  0
  3 14  1  0
  3 15  1  0
  2 16  1  0
  2 17  1  0
  1 18  1  0
 18 19  1  0
 19 20  1  0
 20 21  1  0
 20 22  1  0
 20 23  1  0
 19 24  1  0
 19 25  1  0
 18 26  1  0
 18 27  1  0
  1 28  1  0
  1 29  1  0
M  END
$$$$
