
     RDKit          3D

 29 28  0  0  0  0  0  0  0  0999 V2000
   -0.4816    4.1591  -19.5844 C   0  0  0  0  0  0  0  0  0  0  0  0
   -1.1904    4.8335  -20.6688 C   0  0  0  0  0  0  0  0  0  0  0  0
   -1.1963    4.1967  -22.0153 C   0  0  0  0  0  0  0  0  0  0  0  0
   -2.0126    4.7714  -23.0940 C   0  0  0  0  0  0  0  0  0  0  0  0
   -1.6530    3.9145  -24.3299 C   0  0  0  0  0  0  0  0  0  0  0  0
   -0.3065    4.0693  -24.5235 F   0  0  0  0  0  0  0  0  0  0  0  0
   -1.9294    2.6056  -24.0823 F   0  0  0  0  0  0  0  0  0  0  0  0
   -2.4882    4.4751  -25.7573 S   0  0  0  0  0  0  0  0  0  0  0  0
   -3.9453    4.7472  -25.4717 O   0  0  0  0  0  0  0  0  0  0  0  0
   -1.8748    5.7940  -26.1368 O   0  0  0  0  0  0  0  0  0  0  0  0
   -2.3223    3.4472  -27.0683 O   0  0  0  0  0  0  0  0  0  0  0  0
   -3.3777    4.5894  -22.9886 F   0  0  0  0  0  0  0  0  0  0  0  0
   -1.6578    6.0452  -23.4788 F   0  0  0  0  0  0  0  0  0  0  0  0
    0.1255    4.2251  -22.4715 F   0  0  0  0  0  0  0  0  0  0  0  0
   -1.4850    2.8454  -21.9270 F   0  0  0  0  0  0  0  0  0  0  0  0
   -0.7651    6.1282  -20.8030 F   0  0  0  0  0  0  0  0  0  0  0  0
   -2.5396    4.9178  -20.2446 F   0  0  0  0  0  0  0  0  0  0  0  0
   -0.5586    4.8887  -18.2826 C   0  0  0  0  0  0  0  0  0  0  0  0
    0.0229    4.3247  -17.0628 C   0  0  0  0  0  0  0  0  0  0  0  0
   -0.6940    4.9995  -15.8501 C   0  0  0  0  0  0  0  0  0  0  0  0
   -0.1843    6.2667  -15.7255 F   0  0  0  0  0  0  0  0  0  0  0  0
   -0.3884    4.2560  -14.7268 F   0  0  0  0  0  0  0  0  0  0  0  0
   -2.0241    5.0464  -16.1459 F   0  0  0  0  0  0  0  0  0  0  0  0
    1.3465    4.4539  -16.8389 F   0  0  0  0  0  0  0  0  0  0  0  0
   -0.3123    2.9752  -16.8389 F   0  0  0  0  0  0  0  0  0  0  0  0
   -1.9165    5.1520  -17.9618 F   0  0  0  0  0  0  0  0  0  0  0  0
   -0.0725    6.2140  -18.4314 F   0  0  0  0  0  0  0  0  0  0  0  0
   -0.8978    2.8515  -19.3624 F   0  0  0  0  0  0  0  0  0  0  0  0
    0.9008    4.0185  -19.8403 F   0  0  0  0  0  0  0  0  0  0  0  0
  1  2  1  0
  2  3  1  0
  3  4  1  0
  4  5  1  0
  5  6  1  0
  5  7  1  0
  5  8  1  0
  8  9  2  0
  8 10  2  0
  8 11  1  0
  4 12  1  0
  4 13  1  0
  3 14  1  0
  3 15  1  0
  2 16  1  0
  2 17  1  0
  1 18  1  0
 18 19  1  0
 19 20  1  0
 20 21  1  0
 20 22  1  0
 20 23  1  0
 19 24  1  0
 19 25  1  0
 18 26  1  0
 18 27  1  0
  1 28  1  0
  1 29  1  0
M  END
$$$$
