
     RDKit          3D

 29 28  0  0  0  0  0  0  0  0999 V2000
   14.8429    1.2098   12.2351 C   0  0  0  0  0  0  0  0  0  0  0  0
   15.8188    2.2888   12.3638 C   0  0  0  0  0  0  0  0  0  0  0  0
   16.2099    3.0402   11.1385 C   0  0  0  0  0  0  0  0  0  0  0  0
   17.0404    4.2473   11.2532 C   0  0  0  0  0  0  0  0  0  0  0  0
   17.2153    4.7193    9.7912 C   0  0  0  0  0  0  0  0  0  0  0  0
   17.7827    3.6715    9.1168 F   0  0  0  0  0  0  0  0  0  0  0  0
   16.0010    5.0053    9.2484 F   0  0  0  0  0  0  0  0  0  0  0  0
   18.2891    6.0926    9.6902 S   0  0  0  0  0  0  0  0  0  0  0  0
   18.3958    6.6054    8.2744 O   0  0  0  0  0  0  0  0  0  0  0  0
   17.6678    7.1976   10.4981 O   0  0  0  0  0  0  0  0  0  0  0  0
   19.8075    5.7944   10.3294 O   0  0  0  0  0  0  0  0  0  0  0  0
   16.4471    5.3408   11.8534 F   0  0  0  0  0  0  0  0  0  0  0  0
   18.3341    4.0279   11.6712 F   0  0  0  0  0  0  0  0  0  0  0  0
   16.9319    2.1466   10.3407 F   0  0  0  0  0  0  0  0  0  0  0  0
   15.1020    3.3486   10.3673 F   0  0  0  0  0  0  0  0  0  0  0  0
   16.9572    1.8498   12.9853 F   0  0  0  0  0  0  0  0  0  0  0  0
   15.2349    3.2235   13.2540 F   0  0  0  0  0  0  0  0  0  0  0  0
   14.5887    0.4852   13.5170 C   0  0  0  0  0  0  0  0  0  0  0  0
   13.5292   -0.5201   13.6214 C   0  0  0  0  0  0  0  0  0  0  0  0
   13.7040   -1.2396   14.9969 C   0  0  0  0  0  0  0  0  0  0  0  0
   13.3735   -0.3381   15.9762 F   0  0  0  0  0  0  0  0  0  0  0  0
   15.0349   -1.5915   15.1099 F   0  0  0  0  0  0  0  0  0  0  0  0
   12.8424   -2.2961   15.0093 F   0  0  0  0  0  0  0  0  0  0  0  0
   13.4469   -1.4947   12.6930 F   0  0  0  0  0  0  0  0  0  0  0  0
   12.2386    0.0216   13.7789 F   0  0  0  0  0  0  0  0  0  0  0  0
   14.3185    1.4213   14.5498 F   0  0  0  0  0  0  0  0  0  0  0  0
   15.7917   -0.0891   14.0048 F   0  0  0  0  0  0  0  0  0  0  0  0
   13.6142    1.6148   11.7266 F   0  0  0  0  0  0  0  0  0  0  0  0
   15.2532    0.2080   11.3272 F   0  0  0  0  0  0  0  0  0  0  0  0
  1  2  1  0
  2  3  1  0
  3  4  1  0
  4  5  1  0
  5  6  1  0
  5  7  1  0
  5  8  1  0
  8  9  2  0
  8 10  2  0
  8 11  1  0
  4 12  1  0
  4 13  1  0
  3 14  1  0
  3 15  1  0
  2 16  1  0
  2 17  1  0
  1 18  1  0
 18 19  1  0
 19 20  1  0
 20 21  1  0
 20 22  1  0
 20 23  1  0
 19 24  1  0
 19 25  1  0
 18 26  1  0
 18 27  1  0
  1 28  1  0
  1 29  1  0
M  END
$$$$
