
     RDKit          3D

 25 24  0  0  0  0  0  0  0  0999 V2000
  -21.7640   -6.8060    3.4507 C   0  0  0  0  0  0  0  0  0  0  0  0
  -21.3044   -5.7429    2.9732 O   0  0  0  0  0  0  0  0  0  0  0  0
  -21.3656   -7.2776    4.8478 C   0  0  0  0  0  0  0  0  0  0  0  0
  -20.4288   -6.2686    5.3892 C   0  0  0  0  0  0  0  0  0  0  0  0
  -19.7580   -6.5395    6.6827 C   0  0  0  0  0  0  0  0  0  0  0  0
  -19.0532   -5.4052    7.2860 C   0  0  0  0  0  0  0  0  0  0  0  0
  -18.5291   -5.5555    8.6739 C   0  0  0  0  0  0  0  0  0  0  0  0
  -17.5921   -4.5307    9.1791 C   0  0  0  0  0  0  0  0  0  0  0  0
  -17.3009   -4.7161   10.6770 C   0  0  0  0  0  0  0  0  0  0  0  0
  -18.3938   -4.2949   11.4220 F   0  0  0  0  0  0  0  0  0  0  0  0
  -16.2649   -3.8740   11.0333 F   0  0  0  0  0  0  0  0  0  0  0  0
  -16.9251   -5.9974   10.9786 F   0  0  0  0  0  0  0  0  0  0  0  0
  -18.1981   -3.2617    9.1044 F   0  0  0  0  0  0  0  0  0  0  0  0
  -16.3899   -4.4803    8.5202 F   0  0  0  0  0  0  0  0  0  0  0  0
  -17.9743   -6.8484    8.7355 F   0  0  0  0  0  0  0  0  0  0  0  0
  -19.6554   -5.6311    9.5185 F   0  0  0  0  0  0  0  0  0  0  0  0
  -19.8248   -4.2395    7.3458 F   0  0  0  0  0  0  0  0  0  0  0  0
  -17.9768   -5.0643    6.4685 F   0  0  0  0  0  0  0  0  0  0  0  0
  -20.7587   -7.0736    7.5022 F   0  0  0  0  0  0  0  0  0  0  0  0
  -18.8685   -7.5916    6.5027 F   0  0  0  0  0  0  0  0  0  0  0  0
  -19.4528   -5.9766    4.4082 F   0  0  0  0  0  0  0  0  0  0  0  0
  -21.1274   -5.0541    5.5664 F   0  0  0  0  0  0  0  0  0  0  0  0
  -22.5701   -7.2767    5.5504 F   0  0  0  0  0  0  0  0  0  0  0  0
  -20.8405   -8.5360    4.6812 F   0  0  0  0  0  0  0  0  0  0  0  0
  -22.6469   -7.5527    2.6842 O   0  0  0  0  0  0  0  0  0  0  0  0
  1  2  2  0
  1  3  1  0
  3  4  1  0
  4  5  1  0
  5  6  1  0
  6  7  1  0
  7  8  1  0
  8  9  1  0
  9 10  1  0
  9 11  1  0
  9 12  1  0
  8 13  1  0
  8 14  1  0
  7 15  1  0
  7 16  1  0
  6 17  1  0
  6 18  1  0
  5 19  1  0
  5 20  1  0
  4 21  1  0
  4 22  1  0
  3 23  1  0
  3 24  1  0
  1 25  1  0
M  END
$$$$
