
     RDKit          3D

 25 24  0  0  0  0  0  0  0  0999 V2000
   -6.5845   12.1819    0.8275 C   0  0  0  0  0  0  0  0  0  0  0  0
   -7.6146   12.8909    0.7508 O   0  0  0  0  0  0  0  0  0  0  0  0
   -6.1281   11.5996    2.1638 C   0  0  0  0  0  0  0  0  0  0  0  0
   -6.9237   10.3730    2.3903 C   0  0  0  0  0  0  0  0  0  0  0  0
   -6.7462    9.6322    3.6615 C   0  0  0  0  0  0  0  0  0  0  0  0
   -7.5978    8.4526    3.8371 C   0  0  0  0  0  0  0  0  0  0  0  0
   -7.4211    7.6298    5.0680 C   0  0  0  0  0  0  0  0  0  0  0  0
   -8.0157    6.2773    5.0927 C   0  0  0  0  0  0  0  0  0  0  0  0
   -7.3189    5.3690    6.1186 C   0  0  0  0  0  0  0  0  0  0  0  0
   -7.8113    4.0757    6.0092 F   0  0  0  0  0  0  0  0  0  0  0  0
   -7.6655    5.7895    7.3884 F   0  0  0  0  0  0  0  0  0  0  0  0
   -5.9549    5.4196    6.0156 F   0  0  0  0  0  0  0  0  0  0  0  0
   -7.7834    5.6389    3.8592 F   0  0  0  0  0  0  0  0  0  0  0  0
   -9.3624    6.2492    5.3525 F   0  0  0  0  0  0  0  0  0  0  0  0
   -7.8879    8.4267    6.1312 F   0  0  0  0  0  0  0  0  0  0  0  0
   -6.0321    7.5454    5.2942 F   0  0  0  0  0  0  0  0  0  0  0  0
   -7.4828    7.5242    2.7966 F   0  0  0  0  0  0  0  0  0  0  0  0
   -8.9314    8.8560    3.7931 F   0  0  0  0  0  0  0  0  0  0  0  0
   -5.3778    9.3459    3.7232 F   0  0  0  0  0  0  0  0  0  0  0  0
   -6.9569   10.5135    4.7149 F   0  0  0  0  0  0  0  0  0  0  0  0
   -8.2936   10.6762    2.2128 F   0  0  0  0  0  0  0  0  0  0  0  0
   -6.6296    9.4489    1.3636 F   0  0  0  0  0  0  0  0  0  0  0  0
   -4.7841   11.2971    1.9481 F   0  0  0  0  0  0  0  0  0  0  0  0
   -6.3134   12.5983    3.0887 F   0  0  0  0  0  0  0  0  0  0  0  0
   -5.8604   11.9330   -0.3293 O   0  0  0  0  0  0  0  0  0  0  0  0
  1  2  2  0
  1  3  1  0
  3  4  1  0
  4  5  1  0
  5  6  1  0
  6  7  1  0
  7  8  1  0
  8  9  1  0
  9 10  1  0
  9 11  1  0
  9 12  1  0
  8 13  1  0
  8 14  1  0
  7 15  1  0
  7 16  1  0
  6 17  1  0
  6 18  1  0
  5 19  1  0
  5 20  1  0
  4 21  1  0
  4 22  1  0
  3 23  1  0
  3 24  1  0
  1 25  1  0
M  END
$$$$
