
     RDKit          3D

 25 24  0  0  0  0  0  0  0  0999 V2000
  -14.2100    3.0171   -6.7941 C   0  0  0  0  0  0  0  0  0  0  0  0
  -15.0186    2.0885   -7.0254 O   0  0  0  0  0  0  0  0  0  0  0  0
  -12.7884    2.7221   -6.3198 C   0  0  0  0  0  0  0  0  0  0  0  0
  -12.8998    1.7431   -5.2162 C   0  0  0  0  0  0  0  0  0  0  0  0
  -11.6582    1.2068   -4.6102 C   0  0  0  0  0  0  0  0  0  0  0  0
  -11.8420    0.3112   -3.4650 C   0  0  0  0  0  0  0  0  0  0  0  0
  -10.6308   -0.1603   -2.7343 C   0  0  0  0  0  0  0  0  0  0  0  0
  -10.8212   -0.8398   -1.4362 C   0  0  0  0  0  0  0  0  0  0  0  0
   -9.5507   -1.5821   -0.9915 C   0  0  0  0  0  0  0  0  0  0  0  0
   -9.7617   -2.1698    0.2482 F   0  0  0  0  0  0  0  0  0  0  0  0
   -8.5441   -0.6562   -0.7944 F   0  0  0  0  0  0  0  0  0  0  0  0
   -9.1188   -2.4807   -1.9295 F   0  0  0  0  0  0  0  0  0  0  0  0
  -11.7810   -1.8607   -1.5761 F   0  0  0  0  0  0  0  0  0  0  0  0
  -11.2071   -0.0150   -0.4101 F   0  0  0  0  0  0  0  0  0  0  0  0
   -9.7917    0.9648   -2.6186 F   0  0  0  0  0  0  0  0  0  0  0  0
   -9.9367   -1.0090   -3.6207 F   0  0  0  0  0  0  0  0  0  0  0  0
  -12.5179   -0.8709   -3.7870 F   0  0  0  0  0  0  0  0  0  0  0  0
  -12.6705    0.9398   -2.5369 F   0  0  0  0  0  0  0  0  0  0  0  0
  -10.9644    0.6175   -5.6730 F   0  0  0  0  0  0  0  0  0  0  0  0
  -10.8570    2.2778   -4.2334 F   0  0  0  0  0  0  0  0  0  0  0  0
  -13.7182    2.2892   -4.2003 F   0  0  0  0  0  0  0  0  0  0  0  0
  -13.6160    0.6184   -5.6817 F   0  0  0  0  0  0  0  0  0  0  0  0
  -12.1802    2.1543   -7.4389 F   0  0  0  0  0  0  0  0  0  0  0  0
  -12.2506    3.9378   -5.9737 F   0  0  0  0  0  0  0  0  0  0  0  0
  -14.6301    4.3264   -6.9772 O   0  0  0  0  0  0  0  0  0  0  0  0
  1  2  2  0
  1  3  1  0
  3  4  1  0
  4  5  1  0
  5  6  1  0
  6  7  1  0
  7  8  1  0
  8  9  1  0
  9 10  1  0
  9 11  1  0
  9 12  1  0
  8 13  1  0
  8 14  1  0
  7 15  1  0
  7 16  1  0
  6 17  1  0
  6 18  1  0
  5 19  1  0
  5 20  1  0
  4 21  1  0
  4 22  1  0
  3 23  1  0
  3 24  1  0
  1 25  1  0
M  END
$$$$
