
     RDKit          3D

 25 24  0  0  0  0  0  0  0  0999 V2000
   -8.0648    1.9871    2.0265 C   0  0  0  0  0  0  0  0  0  0  0  0
   -8.6641    3.0773    2.1746 O   0  0  0  0  0  0  0  0  0  0  0  0
   -7.7799    1.4292    0.6334 C   0  0  0  0  0  0  0  0  0  0  0  0
   -9.0496    0.8581    0.1331 C   0  0  0  0  0  0  0  0  0  0  0  0
   -9.1100    0.3685   -1.2644 C   0  0  0  0  0  0  0  0  0  0  0  0
  -10.4254   -0.0825   -1.7266 C   0  0  0  0  0  0  0  0  0  0  0  0
  -10.6605   -0.1899   -3.1951 C   0  0  0  0  0  0  0  0  0  0  0  0
  -12.0558   -0.2856   -3.6717 C   0  0  0  0  0  0  0  0  0  0  0  0
  -12.1232   -0.5080   -5.1913 C   0  0  0  0  0  0  0  0  0  0  0  0
  -13.4472   -0.4929   -5.6082 F   0  0  0  0  0  0  0  0  0  0  0  0
  -11.6623   -1.7799   -5.4726 F   0  0  0  0  0  0  0  0  0  0  0  0
  -11.3473    0.3836   -5.8818 F   0  0  0  0  0  0  0  0  0  0  0  0
  -12.7044    0.9494   -3.4790 F   0  0  0  0  0  0  0  0  0  0  0  0
  -12.7998   -1.2684   -3.0696 F   0  0  0  0  0  0  0  0  0  0  0  0
   -9.8829   -1.2812   -3.6282 F   0  0  0  0  0  0  0  0  0  0  0  0
  -10.0307    0.9269   -3.7815 F   0  0  0  0  0  0  0  0  0  0  0  0
  -11.4781    0.7233   -1.2788 F   0  0  0  0  0  0  0  0  0  0  0  0
  -10.6880   -1.3331   -1.1697 F   0  0  0  0  0  0  0  0  0  0  0  0
   -8.5754    1.4083   -2.0334 F   0  0  0  0  0  0  0  0  0  0  0  0
   -8.1925   -0.6654   -1.4060 F   0  0  0  0  0  0  0  0  0  0  0  0
   -9.4648   -0.1724    1.0082 F   0  0  0  0  0  0  0  0  0  0  0  0
  -10.0586    1.8406    0.2391 F   0  0  0  0  0  0  0  0  0  0  0  0
   -7.4083    2.5547   -0.1012 F   0  0  0  0  0  0  0  0  0  0  0  0
   -6.7548    0.5290    0.7945 F   0  0  0  0  0  0  0  0  0  0  0  0
   -7.6616    1.2905    3.1563 O   0  0  0  0  0  0  0  0  0  0  0  0
  1  2  2  0
  1  3  1  0
  3  4  1  0
  4  5  1  0
  5  6  1  0
  6  7  1  0
  7  8  1  0
  8  9  1  0
  9 10  1  0
  9 11  1  0
  9 12  1  0
  8 13  1  0
  8 14  1  0
  7 15  1  0
  7 16  1  0
  6 17  1  0
  6 18  1  0
  5 19  1  0
  5 20  1  0
  4 21  1  0
  4 22  1  0
  3 23  1  0
  3 24  1  0
  1 25  1  0
M  END
$$$$
