
     RDKit          3D

 25 24  0  0  0  0  0  0  0  0999 V2000
   -0.6149    1.0054  -12.2272 C   0  0  0  0  0  0  0  0  0  0  0  0
    0.5394    0.6940  -11.8514 O   0  0  0  0  0  0  0  0  0  0  0  0
   -1.0866    2.3174  -12.6504 C   0  0  0  0  0  0  0  0  0  0  0  0
   -1.5220    3.2663  -11.6297 C   0  0  0  0  0  0  0  0  0  0  0  0
   -2.2670    4.5210  -12.1430 C   0  0  0  0  0  0  0  0  0  0  0  0
   -2.7682    5.3089  -10.9959 C   0  0  0  0  0  0  0  0  0  0  0  0
   -3.1973    6.6788  -11.0360 C   0  0  0  0  0  0  0  0  0  0  0  0
   -3.7493    7.5529  -10.0325 C   0  0  0  0  0  0  0  0  0  0  0  0
   -4.0424    8.9820  -10.1744 C   0  0  0  0  0  0  0  0  0  0  0  0
   -4.4519    9.7307   -9.1448 F   0  0  0  0  0  0  0  0  0  0  0  0
   -4.9462    9.1968  -11.2579 F   0  0  0  0  0  0  0  0  0  0  0  0
   -2.8833    9.6561  -10.6642 F   0  0  0  0  0  0  0  0  0  0  0  0
   -4.9075    6.9814   -9.4224 F   0  0  0  0  0  0  0  0  0  0  0  0
   -2.8514    7.5024   -8.9024 F   0  0  0  0  0  0  0  0  0  0  0  0
   -2.0494    7.3904  -11.5971 F   0  0  0  0  0  0  0  0  0  0  0  0
   -4.0368    6.7466  -12.2322 F   0  0  0  0  0  0  0  0  0  0  0  0
   -3.7005    4.4724  -10.3183 F   0  0  0  0  0  0  0  0  0  0  0  0
   -1.6829    5.2710  -10.0522 F   0  0  0  0  0  0  0  0  0  0  0  0
   -3.2183    4.0361  -12.9878 F   0  0  0  0  0  0  0  0  0  0  0  0
   -1.3087    5.1907  -12.8885 F   0  0  0  0  0  0  0  0  0  0  0  0
   -0.4196    3.6678  -10.8869 F   0  0  0  0  0  0  0  0  0  0  0  0
   -2.3350    2.5912  -10.7222 F   0  0  0  0  0  0  0  0  0  0  0  0
    0.0148    2.9117  -13.3069 F   0  0  0  0  0  0  0  0  0  0  0  0
   -2.0559    2.0974  -13.6409 F   0  0  0  0  0  0  0  0  0  0  0  0
   -1.5473   -0.0405  -12.2356 O   0  0  0  0  0  0  0  0  0  0  0  0
  1  2  2  0
  1  3  1  0
  3  4  1  0
  4  5  1  0
  5  6  1  0
  6  7  1  0
  7  8  1  0
  8  9  1  0
  9 10  1  0
  9 11  1  0
  9 12  1  0
  8 13  1  0
  8 14  1  0
  7 15  1  0
  7 16  1  0
  6 17  1  0
  6 18  1  0
  5 19  1  0
  5 20  1  0
  4 21  1  0
  4 22  1  0
  3 23  1  0
  3 24  1  0
  1 25  1  0
M  END
$$$$
