
     RDKit          3D

 25 24  0  0  0  0  0  0  0  0999 V2000
   -2.0014    3.1902  -14.2603 C   0  0  0  0  0  0  0  0  0  0  0  0
   -2.0517    2.0183  -13.8190 O   0  0  0  0  0  0  0  0  0  0  0  0
   -1.7682    4.4138  -13.5044 C   0  0  0  0  0  0  0  0  0  0  0  0
   -2.8169    4.8921  -12.6081 C   0  0  0  0  0  0  0  0  0  0  0  0
   -2.5222    6.2161  -11.8642 C   0  0  0  0  0  0  0  0  0  0  0  0
   -3.6735    6.5750  -11.0077 C   0  0  0  0  0  0  0  0  0  0  0  0
   -3.7959    7.7652  -10.2136 C   0  0  0  0  0  0  0  0  0  0  0  0
   -4.8073    8.2181   -9.2929 C   0  0  0  0  0  0  0  0  0  0  0  0
   -4.9433    9.5629   -8.7258 C   0  0  0  0  0  0  0  0  0  0  0  0
   -5.9082    9.8739   -7.8537 F   0  0  0  0  0  0  0  0  0  0  0  0
   -4.9632   10.5393   -9.7665 F   0  0  0  0  0  0  0  0  0  0  0  0
   -3.7331    9.9189   -8.0575 F   0  0  0  0  0  0  0  0  0  0  0  0
   -6.1159    7.8525   -9.7336 F   0  0  0  0  0  0  0  0  0  0  0  0
   -4.7159    7.3679   -8.1289 F   0  0  0  0  0  0  0  0  0  0  0  0
   -2.5317    7.8309   -9.4813 F   0  0  0  0  0  0  0  0  0  0  0  0
   -3.4997    8.8450  -11.1553 F   0  0  0  0  0  0  0  0  0  0  0  0
   -4.8393    6.3250  -11.7864 F   0  0  0  0  0  0  0  0  0  0  0  0
   -3.7664    5.4796  -10.0796 F   0  0  0  0  0  0  0  0  0  0  0  0
   -2.2186    7.1054  -12.8495 F   0  0  0  0  0  0  0  0  0  0  0  0
   -1.3705    5.9392  -11.1435 F   0  0  0  0  0  0  0  0  0  0  0  0
   -3.0994    3.9030  -11.6753 F   0  0  0  0  0  0  0  0  0  0  0  0
   -3.9915    5.0326  -13.3436 F   0  0  0  0  0  0  0  0  0  0  0  0
   -0.6431    4.1389  -12.6947 F   0  0  0  0  0  0  0  0  0  0  0  0
   -1.3535    5.3856  -14.4278 F   0  0  0  0  0  0  0  0  0  0  0  0
   -2.1936    3.3213  -15.6421 O   0  0  0  0  0  0  0  0  0  0  0  0
  1  2  2  0
  1  3  1  0
  3  4  1  0
  4  5  1  0
  5  6  1  0
  6  7  1  0
  7  8  1  0
  8  9  1  0
  9 10  1  0
  9 11  1  0
  9 12  1  0
  8 13  1  0
  8 14  1  0
  7 15  1  0
  7 16  1  0
  6 17  1  0
  6 18  1  0
  5 19  1  0
  5 20  1  0
  4 21  1  0
  4 22  1  0
  3 23  1  0
  3 24  1  0
  1 25  1  0
M  END
$$$$
