
     RDKit          3D

 25 24  0  0  0  0  0  0  0  0999 V2000
  -17.9844  -19.0334   -6.9813 C   0  0  0  0  0  0  0  0  0  0  0  0
  -18.8900  -19.7169   -6.4488 O   0  0  0  0  0  0  0  0  0  0  0  0
  -16.6144  -18.8595   -6.5165 C   0  0  0  0  0  0  0  0  0  0  0  0
  -16.2265  -17.5705   -5.9512 C   0  0  0  0  0  0  0  0  0  0  0  0
  -14.7857  -17.4789   -5.3958 C   0  0  0  0  0  0  0  0  0  0  0  0
  -14.5697  -16.1499   -4.7833 C   0  0  0  0  0  0  0  0  0  0  0  0
  -13.5417  -15.8129   -3.8389 C   0  0  0  0  0  0  0  0  0  0  0  0
  -13.2765  -14.6188   -3.0777 C   0  0  0  0  0  0  0  0  0  0  0  0
  -12.2499  -14.4417   -2.0465 C   0  0  0  0  0  0  0  0  0  0  0  0
  -10.9564  -14.6880   -2.2794 F   0  0  0  0  0  0  0  0  0  0  0  0
  -12.6197  -15.1361   -0.8556 F   0  0  0  0  0  0  0  0  0  0  0  0
  -12.2757  -13.0927   -1.5803 F   0  0  0  0  0  0  0  0  0  0  0  0
  -13.1734  -13.4726   -3.9237 F   0  0  0  0  0  0  0  0  0  0  0  0
  -14.5039  -14.2845   -2.3939 F   0  0  0  0  0  0  0  0  0  0  0  0
  -13.5863  -16.9042   -2.8663 F   0  0  0  0  0  0  0  0  0  0  0  0
  -12.3071  -16.2314   -4.5029 F   0  0  0  0  0  0  0  0  0  0  0  0
  -14.6550  -15.2058   -5.8460 F   0  0  0  0  0  0  0  0  0  0  0  0
  -15.8138  -15.8723   -4.1163 F   0  0  0  0  0  0  0  0  0  0  0  0
  -13.9869  -17.7774   -6.4573 F   0  0  0  0  0  0  0  0  0  0  0  0
  -14.7187  -18.5191   -4.4814 F   0  0  0  0  0  0  0  0  0  0  0  0
  -17.1211  -17.2315   -4.9447 F   0  0  0  0  0  0  0  0  0  0  0  0
  -16.4031  -16.5928   -6.9275 F   0  0  0  0  0  0  0  0  0  0  0  0
  -16.4492  -19.8147   -5.4881 F   0  0  0  0  0  0  0  0  0  0  0  0
  -15.7775  -19.2702   -7.5653 F   0  0  0  0  0  0  0  0  0  0  0  0
  -18.3478  -18.3662   -8.1586 O   0  0  0  0  0  0  0  0  0  0  0  0
  1  2  2  0
  1  3  1  0
  3  4  1  0
  4  5  1  0
  5  6  1  0
  6  7  1  0
  7  8  1  0
  8  9  1  0
  9 10  1  0
  9 11  1  0
  9 12  1  0
  8 13  1  0
  8 14  1  0
  7 15  1  0
  7 16  1  0
  6 17  1  0
  6 18  1  0
  5 19  1  0
  5 20  1  0
  4 21  1  0
  4 22  1  0
  3 23  1  0
  3 24  1  0
  1 25  1  0
M  END
$$$$
