
     RDKit          3D

 13 13  0  0  0  0  0  0  0  0999 V2000
   12.5990  -58.3757    3.1836 C   0  0  0  0  0  0  0  0  0  0  0  0
   12.6207  -58.3116    4.6771 C   0  0  0  0  0  0  0  0  0  0  0  0
   11.9680  -59.1454    5.3779 O   0  0  0  0  0  0  0  0  0  0  0  0
   13.3845  -57.3024    5.2494 O   0  0  0  0  0  0  0  0  0  0  0  0
   13.4034  -57.0706    6.6193 C   0  0  0  0  0  0  0  0  0  0  0  0
   12.6851  -57.9350    7.4240 C   0  0  0  0  0  0  0  0  0  0  0  0
   12.6794  -57.7369    8.7948 C   0  0  0  0  0  0  0  0  0  0  0  0
   13.3827  -56.6850    9.3738 C   0  0  0  0  0  0  0  0  0  0  0  0
   14.1023  -55.8198    8.5608 C   0  0  0  0  0  0  0  0  0  0  0  0
   14.1011  -56.0272    7.1926 C   0  0  0  0  0  0  0  0  0  0  0  0
   14.8492  -55.1321    6.3197 C   0  0  0  0  0  0  0  0  0  0  0  0
   14.8068  -55.3049    5.0732 O   0  0  0  0  0  0  0  0  0  0  0  0
   15.6119  -54.0902    6.8026 O   0  0  0  0  0  0  0  0  0  0  0  0
  1  2  1  0
  2  3  2  0
  2  4  1  0
  4  5  1  0
  5  6  2  0
  6  7  1  0
  7  8  2  0
  8  9  1  0
  9 10  2  0
 10 11  1  0
 11 12  2  0
 11 13  1  0
 10  5  1  0
M  END
$$$$
