
     RDKit          3D

 13 13  0  0  0  0  0  0  0  0999 V2000
   16.2210  -30.0685   30.3680 C   0  0  0  0  0  0  0  0  0  0  0  0
   17.0297  -30.8126   29.3543 C   0  0  0  0  0  0  0  0  0  0  0  0
   16.6007  -30.9831   28.1713 O   0  0  0  0  0  0  0  0  0  0  0  0
   18.2610  -31.3014   29.7719 O   0  0  0  0  0  0  0  0  0  0  0  0
   18.9920  -32.2137   29.0208 C   0  0  0  0  0  0  0  0  0  0  0  0
   18.3241  -33.3212   28.5331 C   0  0  0  0  0  0  0  0  0  0  0  0
   19.0185  -34.2533   27.7800 C   0  0  0  0  0  0  0  0  0  0  0  0
   20.3737  -34.0939   27.5069 C   0  0  0  0  0  0  0  0  0  0  0  0
   21.0395  -32.9797   27.9993 C   0  0  0  0  0  0  0  0  0  0  0  0
   20.3359  -32.0547   28.7506 C   0  0  0  0  0  0  0  0  0  0  0  0
   21.0136  -30.8776   29.2778 C   0  0  0  0  0  0  0  0  0  0  0  0
   20.9688  -30.6391   30.5132 O   0  0  0  0  0  0  0  0  0  0  0  0
   21.7115  -30.0010   28.4747 O   0  0  0  0  0  0  0  0  0  0  0  0
  1  2  1  0
  2  3  2  0
  2  4  1  0
  4  5  1  0
  5  6  2  0
  6  7  1  0
  7  8  2  0
  8  9  1  0
  9 10  2  0
 10 11  1  0
 11 12  2  0
 11 13  1  0
 10  5  1  0
M  END
$$$$
