
     RDKit          3D

 13 13  0  0  0  0  0  0  0  0999 V2000
   23.7750  -34.3338   32.5071 C   0  0  0  0  0  0  0  0  0  0  0  0
   22.3554  -34.3068   32.0389 C   0  0  0  0  0  0  0  0  0  0  0  0
   21.3997  -34.5778   32.8299 O   0  0  0  0  0  0  0  0  0  0  0  0
   22.1414  -33.9732   30.7077 O   0  0  0  0  0  0  0  0  0  0  0  0
   20.8723  -33.9491   30.1422 C   0  0  0  0  0  0  0  0  0  0  0  0
   19.8094  -34.3282   30.9404 C   0  0  0  0  0  0  0  0  0  0  0  0
   18.5289  -34.3174   30.4128 C   0  0  0  0  0  0  0  0  0  0  0  0
   18.2952  -33.9324   29.0961 C   0  0  0  0  0  0  0  0  0  0  0  0
   19.3665  -33.5527   28.2989 C   0  0  0  0  0  0  0  0  0  0  0  0
   20.6417  -33.5672   28.8364 C   0  0  0  0  0  0  0  0  0  0  0  0
   21.7812  -33.1728   28.0187 C   0  0  0  0  0  0  0  0  0  0  0  0
   22.9442  -33.2652   28.4921 O   0  0  0  0  0  0  0  0  0  0  0  0
   21.6425  -32.6965   26.7324 O   0  0  0  0  0  0  0  0  0  0  0  0
  1  2  1  0
  2  3  2  0
  2  4  1  0
  4  5  1  0
  5  6  2  0
  6  7  1  0
  7  8  2  0
  8  9  1  0
  9 10  2  0
 10 11  1  0
 11 12  2  0
 11 13  1  0
 10  5  1  0
M  END
$$$$
