
     RDKit          3D

 29 28  0  0  0  0  0  0  0  0999 V2000
   -9.8077   10.2540   -6.9177 C   0  0  0  0  0  0  0  0  0  0  0  0
  -11.1288   10.8936   -6.7034 C   0  0  0  0  0  0  0  0  0  0  0  0
  -12.2773   10.5986   -7.5858 C   0  0  0  0  0  0  0  0  0  0  0  0
  -13.2132   11.6943   -7.9094 C   0  0  0  0  0  0  0  0  0  0  0  0
  -14.4776   11.3986   -8.6145 C   0  0  0  0  0  0  0  0  0  0  0  0
  -15.0980   10.3752   -7.8547 F   0  0  0  0  0  0  0  0  0  0  0  0
  -14.2285   10.7601   -9.8418 F   0  0  0  0  0  0  0  0  0  0  0  0
  -15.6638   12.6482   -8.7971 S   0  0  0  0  0  0  0  0  0  0  0  0
  -15.1429   13.8861   -9.4683 O   0  0  0  0  0  0  0  0  0  0  0  0
  -16.1574   13.1346   -7.4366 O   0  0  0  0  0  0  0  0  0  0  0  0
  -17.0316   12.1469   -9.6096 O   0  0  0  0  0  0  0  0  0  0  0  0
  -12.5369   12.6634   -8.6613 F   0  0  0  0  0  0  0  0  0  0  0  0
  -13.6326   12.3043   -6.6962 F   0  0  0  0  0  0  0  0  0  0  0  0
  -13.0689    9.6667   -6.8486 F   0  0  0  0  0  0  0  0  0  0  0  0
  -11.7910    9.8812   -8.6522 F   0  0  0  0  0  0  0  0  0  0  0  0
  -10.8885   12.2854   -6.7176 F   0  0  0  0  0  0  0  0  0  0  0  0
  -11.5234   10.5568   -5.4000 F   0  0  0  0  0  0  0  0  0  0  0  0
   -8.6638   10.7582   -6.1290 C   0  0  0  0  0  0  0  0  0  0  0  0
   -7.2850   10.2859   -6.4798 C   0  0  0  0  0  0  0  0  0  0  0  0
   -6.1183   10.9331   -5.8592 C   0  0  0  0  0  0  0  0  0  0  0  0
   -6.4012   10.9941   -4.4633 F   0  0  0  0  0  0  0  0  0  0  0  0
   -6.0503   12.2855   -6.2259 F   0  0  0  0  0  0  0  0  0  0  0  0
   -4.9230   10.2867   -5.9870 F   0  0  0  0  0  0  0  0  0  0  0  0
   -7.1661    8.9079   -6.2416 F   0  0  0  0  0  0  0  0  0  0  0  0
   -7.1611   10.3931   -7.8814 F   0  0  0  0  0  0  0  0  0  0  0  0
   -8.7867   10.5697   -4.7509 F   0  0  0  0  0  0  0  0  0  0  0  0
   -8.5871   12.1753   -6.2776 F   0  0  0  0  0  0  0  0  0  0  0  0
   -9.9078    8.8669   -6.9396 F   0  0  0  0  0  0  0  0  0  0  0  0
   -9.4865   10.5452   -8.2697 F   0  0  0  0  0  0  0  0  0  0  0  0
  1  2  1  0
  2  3  1  0
  3  4  1  0
  4  5  1  0
  5  6  1  0
  5  7  1  0
  5  8  1  0
  8  9  2  0
  8 10  2  0
  8 11  1  0
  4 12  1  0
  4 13  1  0
  3 14  1  0
  3 15  1  0
  2 16  1  0
  2 17  1  0
  1 18  1  0
 18 19  1  0
 19 20  1  0
 20 21  1  0
 20 22  1  0
 20 23  1  0
 19 24  1  0
 19 25  1  0
 18 26  1  0
 18 27  1  0
  1 28  1  0
  1 29  1  0
M  END
$$$$
