
     RDKit          3D

 29 28  0  0  0  0  0  0  0  0999 V2000
   -3.2586   13.4592   -3.3401 C   0  0  0  0  0  0  0  0  0  0  0  0
   -4.3557   12.5661   -3.7864 C   0  0  0  0  0  0  0  0  0  0  0  0
   -4.8138   12.5553   -5.1917 C   0  0  0  0  0  0  0  0  0  0  0  0
   -5.7439   11.4902   -5.6183 C   0  0  0  0  0  0  0  0  0  0  0  0
   -6.0146   11.2814   -7.0558 C   0  0  0  0  0  0  0  0  0  0  0  0
   -4.7620   10.9416   -7.6259 F   0  0  0  0  0  0  0  0  0  0  0  0
   -6.3191   12.4985   -7.6896 F   0  0  0  0  0  0  0  0  0  0  0  0
   -7.1179   10.0374   -7.5431 S   0  0  0  0  0  0  0  0  0  0  0  0
   -8.5288   10.2629   -7.0821 O   0  0  0  0  0  0  0  0  0  0  0  0
   -6.7298    8.6938   -6.9308 O   0  0  0  0  0  0  0  0  0  0  0  0
   -7.1390    9.7820   -9.1914 O   0  0  0  0  0  0  0  0  0  0  0  0
   -6.9796   11.6860   -4.9886 F   0  0  0  0  0  0  0  0  0  0  0  0
   -5.2302   10.2391   -5.1816 F   0  0  0  0  0  0  0  0  0  0  0  0
   -3.6313   12.3154   -5.9551 F   0  0  0  0  0  0  0  0  0  0  0  0
   -5.1802   13.8421   -5.5050 F   0  0  0  0  0  0  0  0  0  0  0  0
   -5.4552   12.8611   -2.9505 F   0  0  0  0  0  0  0  0  0  0  0  0
   -3.9475   11.2584   -3.4842 F   0  0  0  0  0  0  0  0  0  0  0  0
   -2.8024   13.3404   -1.9392 C   0  0  0  0  0  0  0  0  0  0  0  0
   -1.6952   14.2333   -1.4657 C   0  0  0  0  0  0  0  0  0  0  0  0
   -1.4833   14.4201   -0.0216 C   0  0  0  0  0  0  0  0  0  0  0  0
   -0.3325   15.2526    0.1005 F   0  0  0  0  0  0  0  0  0  0  0  0
   -1.0687   13.2205    0.5761 F   0  0  0  0  0  0  0  0  0  0  0  0
   -2.4867   15.0382    0.6667 F   0  0  0  0  0  0  0  0  0  0  0  0
   -0.4695   13.8218   -2.0116 F   0  0  0  0  0  0  0  0  0  0  0  0
   -1.9124   15.4985   -2.0517 F   0  0  0  0  0  0  0  0  0  0  0  0
   -2.4310   12.0483   -1.5620 F   0  0  0  0  0  0  0  0  0  0  0  0
   -3.8893   13.6542   -1.0696 F   0  0  0  0  0  0  0  0  0  0  0  0
   -2.2227   13.5005   -4.2673 F   0  0  0  0  0  0  0  0  0  0  0  0
   -3.7991   14.7677   -3.4472 F   0  0  0  0  0  0  0  0  0  0  0  0
  1  2  1  0
  2  3  1  0
  3  4  1  0
  4  5  1  0
  5  6  1  0
  5  7  1  0
  5  8  1  0
  8  9  2  0
  8 10  2  0
  8 11  1  0
  4 12  1  0
  4 13  1  0
  3 14  1  0
  3 15  1  0
  2 16  1  0
  2 17  1  0
  1 18  1  0
 18 19  1  0
 19 20  1  0
 20 21  1  0
 20 22  1  0
 20 23  1  0
 19 24  1  0
 19 25  1  0
 18 26  1  0
 18 27  1  0
  1 28  1  0
  1 29  1  0
M  END
$$$$
