
     RDKit          3D

 29 28  0  0  0  0  0  0  0  0999 V2000
   -3.0401   13.3437   -3.1572 C   0  0  0  0  0  0  0  0  0  0  0  0
   -4.2797   12.6932   -3.6478 C   0  0  0  0  0  0  0  0  0  0  0  0
   -4.5241   12.4964   -5.0922 C   0  0  0  0  0  0  0  0  0  0  0  0
   -5.6606   11.6469   -5.5022 C   0  0  0  0  0  0  0  0  0  0  0  0
   -5.8674   11.3333   -6.9312 C   0  0  0  0  0  0  0  0  0  0  0  0
   -4.5957   10.9336   -7.4134 F   0  0  0  0  0  0  0  0  0  0  0  0
   -6.1205   12.5029   -7.6686 F   0  0  0  0  0  0  0  0  0  0  0  0
   -6.9685   10.0715   -7.3759 S   0  0  0  0  0  0  0  0  0  0  0  0
   -7.3554   10.0869   -8.8265 O   0  0  0  0  0  0  0  0  0  0  0  0
   -8.2927   10.2152   -6.6295 O   0  0  0  0  0  0  0  0  0  0  0  0
   -6.4117    8.5453   -6.9976 O   0  0  0  0  0  0  0  0  0  0  0  0
   -6.8490   12.2161   -5.0271 F   0  0  0  0  0  0  0  0  0  0  0  0
   -5.5171   10.3726   -4.8895 F   0  0  0  0  0  0  0  0  0  0  0  0
   -3.3731   11.7933   -5.5606 F   0  0  0  0  0  0  0  0  0  0  0  0
   -4.4465   13.7336   -5.6853 F   0  0  0  0  0  0  0  0  0  0  0  0
   -5.3471   13.4401   -3.1022 F   0  0  0  0  0  0  0  0  0  0  0  0
   -4.3200   11.4227   -3.0542 F   0  0  0  0  0  0  0  0  0  0  0  0
   -2.8497   13.4458   -1.6950 C   0  0  0  0  0  0  0  0  0  0  0  0
   -1.7572   14.3294   -1.1724 C   0  0  0  0  0  0  0  0  0  0  0  0
   -1.7056   14.6441    0.2640 C   0  0  0  0  0  0  0  0  0  0  0  0
   -0.6984   15.6424    0.4098 F   0  0  0  0  0  0  0  0  0  0  0  0
   -1.1835   13.5622    0.9885 F   0  0  0  0  0  0  0  0  0  0  0  0
   -2.8439   15.1548    0.8173 F   0  0  0  0  0  0  0  0  0  0  0  0
   -0.5010   13.8128   -1.5258 F   0  0  0  0  0  0  0  0  0  0  0  0
   -1.8330   15.5410   -1.8919 F   0  0  0  0  0  0  0  0  0  0  0  0
   -2.6830   12.2193   -1.0489 F   0  0  0  0  0  0  0  0  0  0  0  0
   -4.0340   13.9853   -1.1100 F   0  0  0  0  0  0  0  0  0  0  0  0
   -1.9176   12.8872   -3.8400 F   0  0  0  0  0  0  0  0  0  0  0  0
   -3.1361   14.6839   -3.6159 F   0  0  0  0  0  0  0  0  0  0  0  0
  1  2  1  0
  2  3  1  0
  3  4  1  0
  4  5  1  0
  5  6  1  0
  5  7  1  0
  5  8  1  0
  8  9  2  0
  8 10  2  0
  8 11  1  0
  4 12  1  0
  4 13  1  0
  3 14  1  0
  3 15  1  0
  2 16  1  0
  2 17  1  0
  1 18  1  0
 18 19  1  0
 19 20  1  0
 20 21  1  0
 20 22  1  0
 20 23  1  0
 19 24  1  0
 19 25  1  0
 18 26  1  0
 18 27  1  0
  1 28  1  0
  1 29  1  0
M  END
$$$$
