
     RDKit          3D

 29 28  0  0  0  0  0  0  0  0999 V2000
   -4.9392    9.7199  -12.2416 C   0  0  0  0  0  0  0  0  0  0  0  0
   -6.0026   10.4230  -13.0002 C   0  0  0  0  0  0  0  0  0  0  0  0
   -5.9844   11.8915  -13.1668 C   0  0  0  0  0  0  0  0  0  0  0  0
   -6.9153   12.4989  -14.1394 C   0  0  0  0  0  0  0  0  0  0  0  0
   -6.7611   13.9187  -14.5184 C   0  0  0  0  0  0  0  0  0  0  0  0
   -5.4129   14.0490  -14.9367 F   0  0  0  0  0  0  0  0  0  0  0  0
   -6.8109   14.7476  -13.3843 F   0  0  0  0  0  0  0  0  0  0  0  0
   -7.7275   14.5678  -15.8017 S   0  0  0  0  0  0  0  0  0  0  0  0
   -7.8575   16.0631  -15.7669 O   0  0  0  0  0  0  0  0  0  0  0  0
   -9.1648   14.0607  -15.7120 O   0  0  0  0  0  0  0  0  0  0  0  0
   -7.1961   14.1225  -17.3189 O   0  0  0  0  0  0  0  0  0  0  0  0
   -8.2274   12.3338  -13.6777 F   0  0  0  0  0  0  0  0  0  0  0  0
   -6.8004   11.8012  -15.3723 F   0  0  0  0  0  0  0  0  0  0  0  0
   -4.6889   12.1789  -13.6939 F   0  0  0  0  0  0  0  0  0  0  0  0
   -5.9811   12.4391  -11.9066 F   0  0  0  0  0  0  0  0  0  0  0  0
   -7.2205   10.0481  -12.3911 F   0  0  0  0  0  0  0  0  0  0  0  0
   -5.9991    9.8697  -14.2893 F   0  0  0  0  0  0  0  0  0  0  0  0
   -5.2063    8.3319  -11.8093 C   0  0  0  0  0  0  0  0  0  0  0  0
   -4.1592    7.6131  -11.0129 C   0  0  0  0  0  0  0  0  0  0  0  0
   -4.3758    6.2080  -10.6337 C   0  0  0  0  0  0  0  0  0  0  0  0
   -5.4893    6.2101   -9.7435 F   0  0  0  0  0  0  0  0  0  0  0  0
   -3.3266    5.7472   -9.8244 F   0  0  0  0  0  0  0  0  0  0  0  0
   -4.6862    5.3449  -11.6444 F   0  0  0  0  0  0  0  0  0  0  0  0
   -2.9195    7.6761  -11.6677 F   0  0  0  0  0  0  0  0  0  0  0  0
   -3.9529    8.3655   -9.8369 F   0  0  0  0  0  0  0  0  0  0  0  0
   -5.5536    7.4626  -12.8453 F   0  0  0  0  0  0  0  0  0  0  0  0
   -6.3494    8.3244  -10.9553 F   0  0  0  0  0  0  0  0  0  0  0  0
   -3.6903    9.8957  -12.8281 F   0  0  0  0  0  0  0  0  0  0  0  0
   -4.8059   10.4660  -11.0411 F   0  0  0  0  0  0  0  0  0  0  0  0
  1  2  1  0
  2  3  1  0
  3  4  1  0
  4  5  1  0
  5  6  1  0
  5  7  1  0
  5  8  1  0
  8  9  2  0
  8 10  2  0
  8 11  1  0
  4 12  1  0
  4 13  1  0
  3 14  1  0
  3 15  1  0
  2 16  1  0
  2 17  1  0
  1 18  1  0
 18 19  1  0
 19 20  1  0
 20 21  1  0
 20 22  1  0
 20 23  1  0
 19 24  1  0
 19 25  1  0
 18 26  1  0
 18 27  1  0
  1 28  1  0
  1 29  1  0
M  END
$$$$
