
     RDKit          3D

 29 28  0  0  0  0  0  0  0  0999 V2000
   -4.2716   12.6948   -3.0245 C   0  0  0  0  0  0  0  0  0  0  0  0
   -4.4343   12.2005   -4.4136 C   0  0  0  0  0  0  0  0  0  0  0  0
   -5.6846   11.5471   -4.8549 C   0  0  0  0  0  0  0  0  0  0  0  0
   -5.7379   10.9833   -6.2190 C   0  0  0  0  0  0  0  0  0  0  0  0
   -7.0345   10.5701   -6.7947 C   0  0  0  0  0  0  0  0  0  0  0  0
   -7.8605   11.7195   -6.7172 F   0  0  0  0  0  0  0  0  0  0  0  0
   -7.6923    9.6629   -5.9461 F   0  0  0  0  0  0  0  0  0  0  0  0
   -7.1044   10.0379   -8.4421 S   0  0  0  0  0  0  0  0  0  0  0  0
   -8.4612    9.5556   -8.8671 O   0  0  0  0  0  0  0  0  0  0  0  0
   -6.1885    8.8371   -8.6666 O   0  0  0  0  0  0  0  0  0  0  0  0
   -6.5931   11.1929   -9.5316 O   0  0  0  0  0  0  0  0  0  0  0  0
   -4.8829    9.8759   -6.2874 F   0  0  0  0  0  0  0  0  0  0  0  0
   -5.2539   11.9595   -7.1315 F   0  0  0  0  0  0  0  0  0  0  0  0
   -6.6539   12.5954   -4.8701 F   0  0  0  0  0  0  0  0  0  0  0  0
   -6.0833   10.7136   -3.8378 F   0  0  0  0  0  0  0  0  0  0  0  0
   -3.3549   11.3171   -4.6358 F   0  0  0  0  0  0  0  0  0  0  0  0
   -4.2394   13.3084   -5.2519 F   0  0  0  0  0  0  0  0  0  0  0  0
   -2.9914   13.3439   -2.6713 C   0  0  0  0  0  0  0  0  0  0  0  0
   -2.7317   13.6869   -1.2353 C   0  0  0  0  0  0  0  0  0  0  0  0
   -1.4628   14.3324   -0.8633 C   0  0  0  0  0  0  0  0  0  0  0  0
   -0.4313   13.4785   -1.3525 F   0  0  0  0  0  0  0  0  0  0  0  0
   -1.2749   14.2888    0.5262 F   0  0  0  0  0  0  0  0  0  0  0  0
   -1.2296   15.5686   -1.3929 F   0  0  0  0  0  0  0  0  0  0  0  0
   -3.7656   14.4911   -0.7311 F   0  0  0  0  0  0  0  0  0  0  0  0
   -2.8542   12.4883   -0.5007 F   0  0  0  0  0  0  0  0  0  0  0  0
   -2.7181   14.5084   -3.3916 F   0  0  0  0  0  0  0  0  0  0  0  0
   -1.9180   12.4677   -3.0123 F   0  0  0  0  0  0  0  0  0  0  0  0
   -5.3942   13.3948   -2.5952 F   0  0  0  0  0  0  0  0  0  0  0  0
   -4.3315   11.5254   -2.2214 F   0  0  0  0  0  0  0  0  0  0  0  0
  1  2  1  0
  2  3  1  0
  3  4  1  0
  4  5  1  0
  5  6  1  0
  5  7  1  0
  5  8  1  0
  8  9  2  0
  8 10  2  0
  8 11  1  0
  4 12  1  0
  4 13  1  0
  3 14  1  0
  3 15  1  0
  2 16  1  0
  2 17  1  0
  1 18  1  0
 18 19  1  0
 19 20  1  0
 20 21  1  0
 20 22  1  0
 20 23  1  0
 19 24  1  0
 19 25  1  0
 18 26  1  0
 18 27  1  0
  1 28  1  0
  1 29  1  0
M  END
$$$$
