
     RDKit          3D

 29 28  0  0  0  0  0  0  0  0999 V2000
    3.0552   -4.2060   -6.5318 C   0  0  0  0  0  0  0  0  0  0  0  0
    4.2066   -3.7981   -7.3454 C   0  0  0  0  0  0  0  0  0  0  0  0
    4.4904   -2.3887   -7.6273 C   0  0  0  0  0  0  0  0  0  0  0  0
    5.7449   -2.0077   -8.2959 C   0  0  0  0  0  0  0  0  0  0  0  0
    5.9326   -0.6160   -8.7616 C   0  0  0  0  0  0  0  0  0  0  0  0
    4.9596   -0.1243   -9.6053 F   0  0  0  0  0  0  0  0  0  0  0  0
    5.8099    0.1947   -7.6028 F   0  0  0  0  0  0  0  0  0  0  0  0
    7.5254   -0.2137   -9.4060 S   0  0  0  0  0  0  0  0  0  0  0  0
    7.4834    1.0816  -10.1922 O   0  0  0  0  0  0  0  0  0  0  0  0
    7.8805   -1.2719  -10.4395 O   0  0  0  0  0  0  0  0  0  0  0  0
    8.7113   -0.0474   -8.2658 O   0  0  0  0  0  0  0  0  0  0  0  0
    5.8124   -2.7938   -9.4735 F   0  0  0  0  0  0  0  0  0  0  0  0
    6.9064   -2.3746   -7.6180 F   0  0  0  0  0  0  0  0  0  0  0  0
    3.4460   -1.8596   -8.3961 F   0  0  0  0  0  0  0  0  0  0  0  0
    4.3747   -1.6756   -6.4217 F   0  0  0  0  0  0  0  0  0  0  0  0
    5.3536   -4.3021   -6.6835 F   0  0  0  0  0  0  0  0  0  0  0  0
    4.1686   -4.5908   -8.5104 F   0  0  0  0  0  0  0  0  0  0  0  0
    3.2574   -4.4803   -5.0847 C   0  0  0  0  0  0  0  0  0  0  0  0
    1.8522   -4.5260   -4.4532 C   0  0  0  0  0  0  0  0  0  0  0  0
    1.9372   -4.8221   -2.9822 C   0  0  0  0  0  0  0  0  0  0  0  0
    0.7217   -4.5940   -2.3652 F   0  0  0  0  0  0  0  0  0  0  0  0
    2.4417   -6.0606   -2.7077 F   0  0  0  0  0  0  0  0  0  0  0  0
    2.8207   -3.9060   -2.4428 F   0  0  0  0  0  0  0  0  0  0  0  0
    1.0972   -5.4628   -5.0907 F   0  0  0  0  0  0  0  0  0  0  0  0
    1.2469   -3.2955   -4.6295 F   0  0  0  0  0  0  0  0  0  0  0  0
    3.8895   -3.4619   -4.4189 F   0  0  0  0  0  0  0  0  0  0  0  0
    3.8868   -5.6831   -4.8361 F   0  0  0  0  0  0  0  0  0  0  0  0
    1.9403   -3.3944   -6.6373 F   0  0  0  0  0  0  0  0  0  0  0  0
    2.6194   -5.4342   -7.0771 F   0  0  0  0  0  0  0  0  0  0  0  0
  1  2  1  0
  2  3  1  0
  3  4  1  0
  4  5  1  0
  5  6  1  0
  5  7  1  0
  5  8  1  0
  8  9  2  0
  8 10  2  0
  8 11  1  0
  4 12  1  0
  4 13  1  0
  3 14  1  0
  3 15  1  0
  2 16  1  0
  2 17  1  0
  1 18  1  0
 18 19  1  0
 19 20  1  0
 20 21  1  0
 20 22  1  0
 20 23  1  0
 19 24  1  0
 19 25  1  0
 18 26  1  0
 18 27  1  0
  1 28  1  0
  1 29  1  0
M  END
$$$$
