
     RDKit          3D

 29 28  0  0  0  0  0  0  0  0999 V2000
    1.9266   -4.6342   -4.4686 C   0  0  0  0  0  0  0  0  0  0  0  0
    3.1411   -4.1006   -5.0966 C   0  0  0  0  0  0  0  0  0  0  0  0
    3.3305   -4.1216   -6.5492 C   0  0  0  0  0  0  0  0  0  0  0  0
    4.5262   -3.5059   -7.1468 C   0  0  0  0  0  0  0  0  0  0  0  0
    5.2721   -4.2279   -8.2010 C   0  0  0  0  0  0  0  0  0  0  0  0
    5.9168   -5.3800   -7.8042 F   0  0  0  0  0  0  0  0  0  0  0  0
    4.2896   -4.6930   -9.1139 F   0  0  0  0  0  0  0  0  0  0  0  0
    6.3621   -3.2580   -9.1934 S   0  0  0  0  0  0  0  0  0  0  0  0
    7.4194   -2.5840   -8.3416 O   0  0  0  0  0  0  0  0  0  0  0  0
    5.5518   -2.1072   -9.7708 O   0  0  0  0  0  0  0  0  0  0  0  0
    7.1581   -4.1003  -10.3728 O   0  0  0  0  0  0  0  0  0  0  0  0
    5.4559   -3.3536   -6.0877 F   0  0  0  0  0  0  0  0  0  0  0  0
    4.3526   -2.1956   -7.5899 F   0  0  0  0  0  0  0  0  0  0  0  0
    3.2953   -5.4496   -6.9932 F   0  0  0  0  0  0  0  0  0  0  0  0
    2.1818   -3.5701   -7.1423 F   0  0  0  0  0  0  0  0  0  0  0  0
    3.2158   -2.7387   -4.7131 F   0  0  0  0  0  0  0  0  0  0  0  0
    4.2280   -4.6623   -4.3964 F   0  0  0  0  0  0  0  0  0  0  0  0
    1.7512   -4.4859   -2.9998 C   0  0  0  0  0  0  0  0  0  0  0  0
    0.5823   -5.4113   -2.6087 C   0  0  0  0  0  0  0  0  0  0  0  0
    1.0928   -6.7228   -2.0815 C   0  0  0  0  0  0  0  0  0  0  0  0
    2.1393   -7.1881   -2.8551 F   0  0  0  0  0  0  0  0  0  0  0  0
    1.3971   -6.6898   -0.7510 F   0  0  0  0  0  0  0  0  0  0  0  0
    0.0673   -7.6375   -2.2308 F   0  0  0  0  0  0  0  0  0  0  0  0
   -0.2240   -5.6067   -3.6883 F   0  0  0  0  0  0  0  0  0  0  0  0
   -0.1636   -4.7908   -1.6236 F   0  0  0  0  0  0  0  0  0  0  0  0
    1.3284   -3.2370   -2.6235 F   0  0  0  0  0  0  0  0  0  0  0  0
    2.8640   -4.8578   -2.2732 F   0  0  0  0  0  0  0  0  0  0  0  0
    0.7374   -4.2464   -5.0587 F   0  0  0  0  0  0  0  0  0  0  0  0
    1.9637   -6.0287   -4.6913 F   0  0  0  0  0  0  0  0  0  0  0  0
  1  2  1  0
  2  3  1  0
  3  4  1  0
  4  5  1  0
  5  6  1  0
  5  7  1  0
  5  8  1  0
  8  9  2  0
  8 10  2  0
  8 11  1  0
  4 12  1  0
  4 13  1  0
  3 14  1  0
  3 15  1  0
  2 16  1  0
  2 17  1  0
  1 18  1  0
 18 19  1  0
 19 20  1  0
 20 21  1  0
 20 22  1  0
 20 23  1  0
 19 24  1  0
 19 25  1  0
 18 26  1  0
 18 27  1  0
  1 28  1  0
  1 29  1  0
M  END
$$$$
