
     RDKit          3D

 29 28  0  0  0  0  0  0  0  0999 V2000
   -1.1707   -4.1005   -3.9865 C   0  0  0  0  0  0  0  0  0  0  0  0
   -1.4699   -2.9747   -4.8793 C   0  0  0  0  0  0  0  0  0  0  0  0
   -2.8458   -2.5505   -5.1502 C   0  0  0  0  0  0  0  0  0  0  0  0
   -3.1135   -1.5144   -6.1606 C   0  0  0  0  0  0  0  0  0  0  0  0
   -4.4159   -1.4954   -6.8622 C   0  0  0  0  0  0  0  0  0  0  0  0
   -4.8763   -2.7132   -7.3156 F   0  0  0  0  0  0  0  0  0  0  0  0
   -5.3724   -1.1212   -5.8824 F   0  0  0  0  0  0  0  0  0  0  0  0
   -4.6026   -0.2872   -8.1346 S   0  0  0  0  0  0  0  0  0  0  0  0
   -6.0059   -0.3118   -8.7072 O   0  0  0  0  0  0  0  0  0  0  0  0
   -3.7132   -0.7055   -9.2958 O   0  0  0  0  0  0  0  0  0  0  0  0
   -4.3023    1.2684   -7.6613 O   0  0  0  0  0  0  0  0  0  0  0  0
   -2.1550   -1.7138   -7.1857 F   0  0  0  0  0  0  0  0  0  0  0  0
   -2.8500   -0.2095   -5.7473 F   0  0  0  0  0  0  0  0  0  0  0  0
   -3.6045   -3.6715   -5.5103 F   0  0  0  0  0  0  0  0  0  0  0  0
   -3.4274   -2.1665   -3.9297 F   0  0  0  0  0  0  0  0  0  0  0  0
   -0.8168   -1.8474   -4.3224 F   0  0  0  0  0  0  0  0  0  0  0  0
   -0.7246   -3.1936   -6.0556 F   0  0  0  0  0  0  0  0  0  0  0  0
    0.2381   -4.3385   -3.5754 C   0  0  0  0  0  0  0  0  0  0  0  0
    0.2796   -5.7584   -2.9774 C   0  0  0  0  0  0  0  0  0  0  0  0
    1.6983   -6.2111   -2.7748 C   0  0  0  0  0  0  0  0  0  0  0  0
    2.1216   -6.9872   -3.8372 F   0  0  0  0  0  0  0  0  0  0  0  0
    2.5582   -5.1883   -2.4956 F   0  0  0  0  0  0  0  0  0  0  0  0
    1.6968   -7.0405   -1.6689 F   0  0  0  0  0  0  0  0  0  0  0  0
   -0.3881   -6.6168   -3.7967 F   0  0  0  0  0  0  0  0  0  0  0  0
   -0.3662   -5.7434   -1.7549 F   0  0  0  0  0  0  0  0  0  0  0  0
    0.6507   -3.5310   -2.5469 F   0  0  0  0  0  0  0  0  0  0  0  0
    1.1337   -4.2802   -4.6237 F   0  0  0  0  0  0  0  0  0  0  0  0
   -1.9427   -4.1671   -2.8408 F   0  0  0  0  0  0  0  0  0  0  0  0
   -1.5422   -5.2618   -4.7001 F   0  0  0  0  0  0  0  0  0  0  0  0
  1  2  1  0
  2  3  1  0
  3  4  1  0
  4  5  1  0
  5  6  1  0
  5  7  1  0
  5  8  1  0
  8  9  2  0
  8 10  2  0
  8 11  1  0
  4 12  1  0
  4 13  1  0
  3 14  1  0
  3 15  1  0
  2 16  1  0
  2 17  1  0
  1 18  1  0
 18 19  1  0
 19 20  1  0
 20 21  1  0
 20 22  1  0
 20 23  1  0
 19 24  1  0
 19 25  1  0
 18 26  1  0
 18 27  1  0
  1 28  1  0
  1 29  1  0
M  END
$$$$
