
     RDKit          3D

 29 28  0  0  0  0  0  0  0  0999 V2000
   -0.5045   -4.1794   -4.5135 C   0  0  0  0  0  0  0  0  0  0  0  0
   -1.7372   -3.3875   -4.4263 C   0  0  0  0  0  0  0  0  0  0  0  0
   -2.6165   -3.2006   -5.5831 C   0  0  0  0  0  0  0  0  0  0  0  0
   -3.1944   -1.8767   -5.8648 C   0  0  0  0  0  0  0  0  0  0  0  0
   -3.9047   -1.6448   -7.1418 C   0  0  0  0  0  0  0  0  0  0  0  0
   -3.2794   -2.1172   -8.2759 F   0  0  0  0  0  0  0  0  0  0  0  0
   -5.0901   -2.4220   -7.0664 F   0  0  0  0  0  0  0  0  0  0  0  0
   -4.4805   -0.0020   -7.4308 S   0  0  0  0  0  0  0  0  0  0  0  0
   -3.3300    0.9849   -7.4377 O   0  0  0  0  0  0  0  0  0  0  0  0
   -5.3207    0.4053   -6.2298 O   0  0  0  0  0  0  0  0  0  0  0  0
   -5.3008    0.2039   -8.8516 O   0  0  0  0  0  0  0  0  0  0  0  0
   -2.1026   -0.9732   -5.8907 F   0  0  0  0  0  0  0  0  0  0  0  0
   -3.9951   -1.3574   -4.8488 F   0  0  0  0  0  0  0  0  0  0  0  0
   -1.9358   -3.5989   -6.7406 F   0  0  0  0  0  0  0  0  0  0  0  0
   -3.6518   -4.1472   -5.4958 F   0  0  0  0  0  0  0  0  0  0  0  0
   -2.5312   -4.0052   -3.4286 F   0  0  0  0  0  0  0  0  0  0  0  0
   -1.3832   -2.1713   -3.8077 F   0  0  0  0  0  0  0  0  0  0  0  0
    0.7341   -3.6550   -3.8802 C   0  0  0  0  0  0  0  0  0  0  0  0
    1.9061   -4.1417   -4.7551 C   0  0  0  0  0  0  0  0  0  0  0  0
    3.1694   -3.4023   -4.4147 C   0  0  0  0  0  0  0  0  0  0  0  0
    4.0199   -4.2005   -3.6733 F   0  0  0  0  0  0  0  0  0  0  0  0
    3.7824   -2.8491   -5.5019 F   0  0  0  0  0  0  0  0  0  0  0  0
    2.8068   -2.3549   -3.5888 F   0  0  0  0  0  0  0  0  0  0  0  0
    1.5909   -3.9782   -6.0695 F   0  0  0  0  0  0  0  0  0  0  0  0
    2.0996   -5.4913   -4.5256 F   0  0  0  0  0  0  0  0  0  0  0  0
    0.9896   -4.1988   -2.6476 F   0  0  0  0  0  0  0  0  0  0  0  0
    0.7787   -2.2771   -3.8183 F   0  0  0  0  0  0  0  0  0  0  0  0
   -0.6246   -5.5031   -4.1312 F   0  0  0  0  0  0  0  0  0  0  0  0
   -0.2015   -4.2621   -5.8908 F   0  0  0  0  0  0  0  0  0  0  0  0
  1  2  1  0
  2  3  1  0
  3  4  1  0
  4  5  1  0
  5  6  1  0
  5  7  1  0
  5  8  1  0
  8  9  2  0
  8 10  2  0
  8 11  1  0
  4 12  1  0
  4 13  1  0
  3 14  1  0
  3 15  1  0
  2 16  1  0
  2 17  1  0
  1 18  1  0
 18 19  1  0
 19 20  1  0
 20 21  1  0
 20 22  1  0
 20 23  1  0
 19 24  1  0
 19 25  1  0
 18 26  1  0
 18 27  1  0
  1 28  1  0
  1 29  1  0
M  END
$$$$
