
     RDKit          3D

  4  3  0  0  0  0  0  0  0  0999 V2000
    2.5376    3.8563   -5.4941 C   0  0  0  0  0  0  0  0  0  0  0  0
    1.6231    3.8611   -4.2852 C   0  0  0  0  0  0  0  0  0  0  0  0
    1.8029    5.5205   -3.6337 Cl  0  0  0  0  0  0  0  0  0  0  0  0
    2.2654    2.5288   -6.5946 Cl  0  0  0  0  0  0  0  0  0  0  0  0
  1  2  1  0
  2  3  1  0
  1  4  1  0
M  END
$$$$
