
     RDKit          3D

  4  3  0  0  0  0  0  0  0  0999 V2000
   -5.3344    2.0492    7.3755 C   0  0  0  0  0  0  0  0  0  0  0  0
   -6.4698    2.1159    8.3776 C   0  0  0  0  0  0  0  0  0  0  0  0
   -5.6269    2.2394    9.9540 Cl  0  0  0  0  0  0  0  0  0  0  0  0
   -5.6902    2.7940    5.8373 Cl  0  0  0  0  0  0  0  0  0  0  0  0
  1  2  1  0
  2  3  1  0
  1  4  1  0
M  END
$$$$
