
     RDKit          3D

  4  3  0  0  0  0  0  0  0  0999 V2000
   -6.8299  -19.1248   -3.5430 C   0  0  0  0  0  0  0  0  0  0  0  0
   -7.0646  -19.0484   -2.0474 C   0  0  0  0  0  0  0  0  0  0  0  0
   -7.5617  -20.7156   -1.6184 Cl  0  0  0  0  0  0  0  0  0  0  0  0
   -5.6116  -18.0237   -4.1353 Cl  0  0  0  0  0  0  0  0  0  0  0  0
  1  2  1  0
  2  3  1  0
  1  4  1  0
M  END
$$$$
