
     RDKit          3D

 25 24  0  0  0  0  0  0  0  0999 V2000
   -0.9400   13.6425  -14.1324 C   0  0  0  0  0  0  0  0  0  0  0  0
   -2.0440   13.8343  -14.7428 O   0  0  0  0  0  0  0  0  0  0  0  0
   -0.8833   12.7734  -12.9507 C   0  0  0  0  0  0  0  0  0  0  0  0
   -2.1338   11.9937  -12.7299 C   0  0  0  0  0  0  0  0  0  0  0  0
   -2.4143   10.8346  -13.5852 C   0  0  0  0  0  0  0  0  0  0  0  0
   -3.8351   10.3838  -13.7214 C   0  0  0  0  0  0  0  0  0  0  0  0
   -4.1531    9.3495  -14.7301 C   0  0  0  0  0  0  0  0  0  0  0  0
   -5.6829    9.0978  -14.6454 C   0  0  0  0  0  0  0  0  0  0  0  0
   -5.9067    7.7737  -15.3823 C   0  0  0  0  0  0  0  0  0  0  0  0
   -6.0824    8.0411  -16.7134 F   0  0  0  0  0  0  0  0  0  0  0  0
   -7.1288    7.3041  -14.9061 F   0  0  0  0  0  0  0  0  0  0  0  0
   -4.8827    6.8969  -15.1799 F   0  0  0  0  0  0  0  0  0  0  0  0
   -5.9799    8.9651  -13.3068 F   0  0  0  0  0  0  0  0  0  0  0  0
   -6.3910   10.1260  -15.1792 F   0  0  0  0  0  0  0  0  0  0  0  0
   -3.8697    9.6855  -16.0162 F   0  0  0  0  0  0  0  0  0  0  0  0
   -3.6672    8.0708  -14.4008 F   0  0  0  0  0  0  0  0  0  0  0  0
   -4.2932   10.0551  -12.4540 F   0  0  0  0  0  0  0  0  0  0  0  0
   -4.5509   11.5296  -14.1143 F   0  0  0  0  0  0  0  0  0  0  0  0
   -1.5611    9.7613  -13.3286 F   0  0  0  0  0  0  0  0  0  0  0  0
   -2.0789   11.1773  -14.9176 F   0  0  0  0  0  0  0  0  0  0  0  0
   -2.0834   11.6427  -11.3608 F   0  0  0  0  0  0  0  0  0  0  0  0
   -3.2315   12.8700  -12.7566 F   0  0  0  0  0  0  0  0  0  0  0  0
    0.2439   11.9550  -13.0030 F   0  0  0  0  0  0  0  0  0  0  0  0
   -0.6166   13.6138  -11.8525 F   0  0  0  0  0  0  0  0  0  0  0  0
    0.1469   14.3177  -14.6805 O   0  0  0  0  0  0  0  0  0  0  0  0
  1  2  2  0
  1  3  1  0
  3  4  1  0
  4  5  1  0
  5  6  1  0
  6  7  1  0
  7  8  1  0
  8  9  1  0
  9 10  1  0
  9 11  1  0
  9 12  1  0
  8 13  1  0
  8 14  1  0
  7 15  1  0
  7 16  1  0
  6 17  1  0
  6 18  1  0
  5 19  1  0
  5 20  1  0
  4 21  1  0
  4 22  1  0
  3 23  1  0
  3 24  1  0
  1 25  1  0
M  END
$$$$
