
     RDKit          3D

 25 24  0  0  0  0  0  0  0  0999 V2000
   -6.1249   11.3349   -9.0004 C   0  0  0  0  0  0  0  0  0  0  0  0
   -5.7094   12.1660   -8.1258 O   0  0  0  0  0  0  0  0  0  0  0  0
   -5.2005   10.7739   -9.9933 C   0  0  0  0  0  0  0  0  0  0  0  0
   -3.8539   11.4117   -9.9739 C   0  0  0  0  0  0  0  0  0  0  0  0
   -2.8567   11.0073  -10.9717 C   0  0  0  0  0  0  0  0  0  0  0  0
   -2.1254   12.0808  -11.7155 C   0  0  0  0  0  0  0  0  0  0  0  0
   -1.2118   11.6837  -12.8093 C   0  0  0  0  0  0  0  0  0  0  0  0
   -0.5192   12.9813  -13.3064 C   0  0  0  0  0  0  0  0  0  0  0  0
    0.1336   12.5955  -14.6374 C   0  0  0  0  0  0  0  0  0  0  0  0
    1.4876   12.5169  -14.4510 F   0  0  0  0  0  0  0  0  0  0  0  0
   -0.0902   13.6876  -15.4728 F   0  0  0  0  0  0  0  0  0  0  0  0
   -0.3705   11.4309  -15.1350 F   0  0  0  0  0  0  0  0  0  0  0  0
   -1.5227   13.9035  -13.5069 F   0  0  0  0  0  0  0  0  0  0  0  0
    0.3722   13.4542  -12.3980 F   0  0  0  0  0  0  0  0  0  0  0  0
   -0.2305   10.8110  -12.4588 F   0  0  0  0  0  0  0  0  0  0  0  0
   -1.8762   11.2850  -13.9837 F   0  0  0  0  0  0  0  0  0  0  0  0
   -3.0602   13.0249  -12.1143 F   0  0  0  0  0  0  0  0  0  0  0  0
   -1.3144   12.7109  -10.7538 F   0  0  0  0  0  0  0  0  0  0  0  0
   -3.3338   10.0221  -11.8362 F   0  0  0  0  0  0  0  0  0  0  0  0
   -1.8052   10.3382  -10.2994 F   0  0  0  0  0  0  0  0  0  0  0  0
   -4.1289   12.7978  -10.0304 F   0  0  0  0  0  0  0  0  0  0  0  0
   -3.3048   11.2849   -8.6871 F   0  0  0  0  0  0  0  0  0  0  0  0
   -5.1277    9.3882   -9.8609 F   0  0  0  0  0  0  0  0  0  0  0  0
   -5.8164   10.9424  -11.2486 F   0  0  0  0  0  0  0  0  0  0  0  0
   -7.4823   11.0386   -8.9155 O   0  0  0  0  0  0  0  0  0  0  0  0
  1  2  2  0
  1  3  1  0
  3  4  1  0
  4  5  1  0
  5  6  1  0
  6  7  1  0
  7  8  1  0
  8  9  1  0
  9 10  1  0
  9 11  1  0
  9 12  1  0
  8 13  1  0
  8 14  1  0
  7 15  1  0
  7 16  1  0
  6 17  1  0
  6 18  1  0
  5 19  1  0
  5 20  1  0
  4 21  1  0
  4 22  1  0
  3 23  1  0
  3 24  1  0
  1 25  1  0
M  END
$$$$
