
     RDKit          3D

 25 24  0  0  0  0  0  0  0  0999 V2000
   -4.6021   19.3409  -11.0786 C   0  0  0  0  0  0  0  0  0  0  0  0
   -3.5276   20.0069  -10.9054 O   0  0  0  0  0  0  0  0  0  0  0  0
   -5.0500   18.3737  -10.0692 C   0  0  0  0  0  0  0  0  0  0  0  0
   -4.5771   16.9849  -10.3304 C   0  0  0  0  0  0  0  0  0  0  0  0
   -5.1053   15.8845   -9.5157 C   0  0  0  0  0  0  0  0  0  0  0  0
   -4.4088   14.5611   -9.5783 C   0  0  0  0  0  0  0  0  0  0  0  0
   -4.8519   13.4871   -8.6625 C   0  0  0  0  0  0  0  0  0  0  0  0
   -3.6599   12.5027   -8.5182 C   0  0  0  0  0  0  0  0  0  0  0  0
   -4.0827   11.5298   -7.4131 C   0  0  0  0  0  0  0  0  0  0  0  0
   -5.2924   10.9859   -7.7519 F   0  0  0  0  0  0  0  0  0  0  0  0
   -4.3066   12.3344   -6.2979 F   0  0  0  0  0  0  0  0  0  0  0  0
   -3.1446   10.5651   -7.1953 F   0  0  0  0  0  0  0  0  0  0  0  0
   -3.5499   11.8483   -9.7255 F   0  0  0  0  0  0  0  0  0  0  0  0
   -2.5026   13.1537   -8.2351 F   0  0  0  0  0  0  0  0  0  0  0  0
   -5.1929   13.8943   -7.4113 F   0  0  0  0  0  0  0  0  0  0  0  0
   -5.8204   12.6326   -9.2204 F   0  0  0  0  0  0  0  0  0  0  0  0
   -4.3913   14.1598  -10.9060 F   0  0  0  0  0  0  0  0  0  0  0  0
   -3.0722   14.8294   -9.2299 F   0  0  0  0  0  0  0  0  0  0  0  0
   -6.4869   15.7403   -9.6424 F   0  0  0  0  0  0  0  0  0  0  0  0
   -4.9605   16.2359   -8.1516 F   0  0  0  0  0  0  0  0  0  0  0  0
   -4.8253   16.7906  -11.7091 F   0  0  0  0  0  0  0  0  0  0  0  0
   -3.1731   16.9632  -10.2904 F   0  0  0  0  0  0  0  0  0  0  0  0
   -4.7097   18.8129   -8.7907 F   0  0  0  0  0  0  0  0  0  0  0  0
   -6.4572   18.4306  -10.0620 F   0  0  0  0  0  0  0  0  0  0  0  0
   -5.2653   19.6160  -12.2711 O   0  0  0  0  0  0  0  0  0  0  0  0
  1  2  2  0
  1  3  1  0
  3  4  1  0
  4  5  1  0
  5  6  1  0
  6  7  1  0
  7  8  1  0
  8  9  1  0
  9 10  1  0
  9 11  1  0
  9 12  1  0
  8 13  1  0
  8 14  1  0
  7 15  1  0
  7 16  1  0
  6 17  1  0
  6 18  1  0
  5 19  1  0
  5 20  1  0
  4 21  1  0
  4 22  1  0
  3 23  1  0
  3 24  1  0
  1 25  1  0
M  END
$$$$
