
     RDKit          3D

 25 24  0  0  0  0  0  0  0  0999 V2000
   -4.6716   15.3121  -10.9351 C   0  0  0  0  0  0  0  0  0  0  0  0
   -4.5542   16.2605  -10.0896 O   0  0  0  0  0  0  0  0  0  0  0  0
   -5.8426   14.4272  -10.9041 C   0  0  0  0  0  0  0  0  0  0  0  0
   -5.6494   13.2207  -10.0512 C   0  0  0  0  0  0  0  0  0  0  0  0
   -6.6230   12.1256  -10.1304 C   0  0  0  0  0  0  0  0  0  0  0  0
   -6.5802   11.0640   -9.0760 C   0  0  0  0  0  0  0  0  0  0  0  0
   -7.5441    9.9451   -9.1624 C   0  0  0  0  0  0  0  0  0  0  0  0
   -7.4132    9.1394   -7.8416 C   0  0  0  0  0  0  0  0  0  0  0  0
   -7.9102    7.7321   -8.1867 C   0  0  0  0  0  0  0  0  0  0  0  0
   -9.2736    7.7690   -8.3043 F   0  0  0  0  0  0  0  0  0  0  0  0
   -7.6289    6.9686   -7.0558 F   0  0  0  0  0  0  0  0  0  0  0  0
   -7.3243    7.2464   -9.3176 F   0  0  0  0  0  0  0  0  0  0  0  0
   -6.0710    9.1183   -7.5323 F   0  0  0  0  0  0  0  0  0  0  0  0
   -8.1143    9.7145   -6.8312 F   0  0  0  0  0  0  0  0  0  0  0  0
   -8.8478   10.3094   -9.2855 F   0  0  0  0  0  0  0  0  0  0  0  0
   -7.1825    8.9587  -10.0981 F   0  0  0  0  0  0  0  0  0  0  0  0
   -5.2662   10.6322   -8.9699 F   0  0  0  0  0  0  0  0  0  0  0  0
   -6.8756   11.7271   -7.8707 F   0  0  0  0  0  0  0  0  0  0  0  0
   -6.7032   11.5723  -11.4082 F   0  0  0  0  0  0  0  0  0  0  0  0
   -7.9176   12.6718   -9.9541 F   0  0  0  0  0  0  0  0  0  0  0  0
   -4.3384   12.7882  -10.3587 F   0  0  0  0  0  0  0  0  0  0  0  0
   -5.5073   13.6232   -8.7128 F   0  0  0  0  0  0  0  0  0  0  0  0
   -6.9842   15.1442  -10.5496 F   0  0  0  0  0  0  0  0  0  0  0  0
   -6.0982   14.0606  -12.2397 F   0  0  0  0  0  0  0  0  0  0  0  0
   -3.6186   15.2124  -11.8399 O   0  0  0  0  0  0  0  0  0  0  0  0
  1  2  2  0
  1  3  1  0
  3  4  1  0
  4  5  1  0
  5  6  1  0
  6  7  1  0
  7  8  1  0
  8  9  1  0
  9 10  1  0
  9 11  1  0
  9 12  1  0
  8 13  1  0
  8 14  1  0
  7 15  1  0
  7 16  1  0
  6 17  1  0
  6 18  1  0
  5 19  1  0
  5 20  1  0
  4 21  1  0
  4 22  1  0
  3 23  1  0
  3 24  1  0
  1 25  1  0
M  END
$$$$
