
     RDKit          3D

 25 24  0  0  0  0  0  0  0  0999 V2000
    0.1564   13.0433  -14.0441 C   0  0  0  0  0  0  0  0  0  0  0  0
   -0.3999   14.0661  -14.5662 O   0  0  0  0  0  0  0  0  0  0  0  0
   -0.5262   12.2794  -12.9927 C   0  0  0  0  0  0  0  0  0  0  0  0
   -1.7920   12.9140  -12.5282 C   0  0  0  0  0  0  0  0  0  0  0  0
   -2.4710   12.3728  -11.3451 C   0  0  0  0  0  0  0  0  0  0  0  0
   -3.8137   12.9279  -10.9849 C   0  0  0  0  0  0  0  0  0  0  0  0
   -4.3289   12.6959   -9.6178 C   0  0  0  0  0  0  0  0  0  0  0  0
   -5.7328   13.3557   -9.5512 C   0  0  0  0  0  0  0  0  0  0  0  0
   -6.5303   12.4893   -8.5715 C   0  0  0  0  0  0  0  0  0  0  0  0
   -7.8334   12.9089   -8.5812 F   0  0  0  0  0  0  0  0  0  0  0  0
   -6.0185   12.8097   -7.3159 F   0  0  0  0  0  0  0  0  0  0  0  0
   -6.4307   11.1620   -8.8653 F   0  0  0  0  0  0  0  0  0  0  0  0
   -5.5426   14.6198   -9.0380 F   0  0  0  0  0  0  0  0  0  0  0  0
   -6.3094   13.4337  -10.7779 F   0  0  0  0  0  0  0  0  0  0  0  0
   -4.4788   11.3914   -9.2668 F   0  0  0  0  0  0  0  0  0  0  0  0
   -3.6549   13.4334   -8.6271 F   0  0  0  0  0  0  0  0  0  0  0  0
   -3.8211   14.2688  -11.3400 F   0  0  0  0  0  0  0  0  0  0  0  0
   -4.7225   12.2869  -11.8468 F   0  0  0  0  0  0  0  0  0  0  0  0
   -1.6328   12.3029  -10.2323 F   0  0  0  0  0  0  0  0  0  0  0  0
   -2.7654   11.0095  -11.5897 F   0  0  0  0  0  0  0  0  0  0  0  0
   -1.4546   14.2781  -12.3685 F   0  0  0  0  0  0  0  0  0  0  0  0
   -2.6973   12.9706  -13.6009 F   0  0  0  0  0  0  0  0  0  0  0  0
   -0.7178   10.9594  -13.3975 F   0  0  0  0  0  0  0  0  0  0  0  0
    0.3917   12.1575  -11.9315 F   0  0  0  0  0  0  0  0  0  0  0  0
    1.4184   12.7504  -14.5530 O   0  0  0  0  0  0  0  0  0  0  0  0
  1  2  2  0
  1  3  1  0
  3  4  1  0
  4  5  1  0
  5  6  1  0
  6  7  1  0
  7  8  1  0
  8  9  1  0
  9 10  1  0
  9 11  1  0
  9 12  1  0
  8 13  1  0
  8 14  1  0
  7 15  1  0
  7 16  1  0
  6 17  1  0
  6 18  1  0
  5 19  1  0
  5 20  1  0
  4 21  1  0
  4 22  1  0
  3 23  1  0
  3 24  1  0
  1 25  1  0
M  END
$$$$
