
     RDKit          3D

 25 24  0  0  0  0  0  0  0  0999 V2000
   -0.2584   14.0529  -12.7143 C   0  0  0  0  0  0  0  0  0  0  0  0
   -0.9420   14.1961  -11.6464 O   0  0  0  0  0  0  0  0  0  0  0  0
   -0.5471   12.9520  -13.6415 C   0  0  0  0  0  0  0  0  0  0  0  0
   -1.6988   12.1075  -13.2161 C   0  0  0  0  0  0  0  0  0  0  0  0
   -2.1120   10.9825  -14.0630 C   0  0  0  0  0  0  0  0  0  0  0  0
   -3.4140   10.3096  -13.7588 C   0  0  0  0  0  0  0  0  0  0  0  0
   -4.0016    9.4160  -14.7809 C   0  0  0  0  0  0  0  0  0  0  0  0
   -5.3557    8.9142  -14.2106 C   0  0  0  0  0  0  0  0  0  0  0  0
   -5.8820    7.9251  -15.2553 C   0  0  0  0  0  0  0  0  0  0  0  0
   -7.0963    7.4533  -14.8346 F   0  0  0  0  0  0  0  0  0  0  0  0
   -4.9977    6.8497  -15.2037 F   0  0  0  0  0  0  0  0  0  0  0  0
   -5.9665    8.4874  -16.4942 F   0  0  0  0  0  0  0  0  0  0  0  0
   -5.0626    8.2650  -13.0315 F   0  0  0  0  0  0  0  0  0  0  0  0
   -6.2128    9.9406  -13.9757 F   0  0  0  0  0  0  0  0  0  0  0  0
   -4.2600    9.9976  -15.9819 F   0  0  0  0  0  0  0  0  0  0  0  0
   -3.3183    8.1944  -14.9237 F   0  0  0  0  0  0  0  0  0  0  0  0
   -3.2894    9.6978  -12.5200 F   0  0  0  0  0  0  0  0  0  0  0  0
   -4.3407   11.3549  -13.5907 F   0  0  0  0  0  0  0  0  0  0  0  0
   -1.0898   10.0529  -14.2542 F   0  0  0  0  0  0  0  0  0  0  0  0
   -2.3264   11.4723  -15.3743 F   0  0  0  0  0  0  0  0  0  0  0  0
   -1.3547   11.6893  -11.9095 F   0  0  0  0  0  0  0  0  0  0  0  0
   -2.8062   12.9346  -12.9654 F   0  0  0  0  0  0  0  0  0  0  0  0
   -0.7024   13.4374  -14.9389 F   0  0  0  0  0  0  0  0  0  0  0  0
    0.6314   12.1856  -13.7266 F   0  0  0  0  0  0  0  0  0  0  0  0
    0.7420   15.0045  -12.8907 O   0  0  0  0  0  0  0  0  0  0  0  0
  1  2  2  0
  1  3  1  0
  3  4  1  0
  4  5  1  0
  5  6  1  0
  6  7  1  0
  7  8  1  0
  8  9  1  0
  9 10  1  0
  9 11  1  0
  9 12  1  0
  8 13  1  0
  8 14  1  0
  7 15  1  0
  7 16  1  0
  6 17  1  0
  6 18  1  0
  5 19  1  0
  5 20  1  0
  4 21  1  0
  4 22  1  0
  3 23  1  0
  3 24  1  0
  1 25  1  0
M  END
$$$$
