
     RDKit          3D

 29 28  0  0  0  0  0  0  0  0999 V2000
    0.6991   -4.2424   -3.1921 C   0  0  0  0  0  0  0  0  0  0  0  0
   -0.2923   -3.1222   -3.1471 C   0  0  0  0  0  0  0  0  0  0  0  0
   -1.5150   -3.2733   -3.9505 C   0  0  0  0  0  0  0  0  0  0  0  0
   -2.4768   -2.1621   -4.0667 C   0  0  0  0  0  0  0  0  0  0  0  0
   -3.6579   -2.3551   -4.9661 C   0  0  0  0  0  0  0  0  0  0  0  0
   -4.5075   -3.3345   -4.4259 F   0  0  0  0  0  0  0  0  0  0  0  0
   -3.4177   -2.5681   -6.2822 F   0  0  0  0  0  0  0  0  0  0  0  0
   -4.6174   -0.8295   -4.8285 S   0  0  0  0  0  0  0  0  0  0  0  0
   -5.7961   -0.9017   -5.7703 O   0  0  0  0  0  0  0  0  0  0  0  0
   -3.8012    0.3588   -5.2496 O   0  0  0  0  0  0  0  0  0  0  0  0
   -5.2064   -0.6234   -3.2925 O   0  0  0  0  0  0  0  0  0  0  0  0
   -1.9082   -0.9195   -4.3267 F   0  0  0  0  0  0  0  0  0  0  0  0
   -3.0778   -1.9469   -2.7860 F   0  0  0  0  0  0  0  0  0  0  0  0
   -1.1738   -3.6848   -5.2634 F   0  0  0  0  0  0  0  0  0  0  0  0
   -2.2658   -4.3850   -3.4938 F   0  0  0  0  0  0  0  0  0  0  0  0
    0.2742   -1.8998   -3.4945 F   0  0  0  0  0  0  0  0  0  0  0  0
   -0.6525   -2.9527   -1.8029 F   0  0  0  0  0  0  0  0  0  0  0  0
    1.7896   -4.1957   -2.1909 C   0  0  0  0  0  0  0  0  0  0  0  0
    2.8300   -5.2199   -2.1518 C   0  0  0  0  0  0  0  0  0  0  0  0
    3.9854   -5.0210   -1.2348 C   0  0  0  0  0  0  0  0  0  0  0  0
    5.0996   -5.7760   -1.4971 F   0  0  0  0  0  0  0  0  0  0  0  0
    3.6136   -5.0761    0.0940 F   0  0  0  0  0  0  0  0  0  0  0  0
    4.3990   -3.6939   -1.4309 F   0  0  0  0  0  0  0  0  0  0  0  0
    3.4189   -5.2015   -3.4465 F   0  0  0  0  0  0  0  0  0  0  0  0
    2.3938   -6.5378   -2.0550 F   0  0  0  0  0  0  0  0  0  0  0  0
    2.4314   -2.9589   -2.3591 F   0  0  0  0  0  0  0  0  0  0  0  0
    1.1960   -4.1242   -0.9241 F   0  0  0  0  0  0  0  0  0  0  0  0
    1.1872   -4.4268   -4.4947 F   0  0  0  0  0  0  0  0  0  0  0  0
    0.0234   -5.4222   -2.9415 F   0  0  0  0  0  0  0  0  0  0  0  0
  1  2  1  0
  2  3  1  0
  3  4  1  0
  4  5  1  0
  5  6  1  0
  5  7  1  0
  5  8  1  0
  8  9  2  0
  8 10  2  0
  8 11  1  0
  4 12  1  0
  4 13  1  0
  3 14  1  0
  3 15  1  0
  2 16  1  0
  2 17  1  0
  1 18  1  0
 18 19  1  0
 19 20  1  0
 20 21  1  0
 20 22  1  0
 20 23  1  0
 19 24  1  0
 19 25  1  0
 18 26  1  0
 18 27  1  0
  1 28  1  0
  1 29  1  0
M  END
$$$$
