
     RDKit          3D

 29 28  0  0  0  0  0  0  0  0999 V2000
    0.3732   -6.2735   -0.7674 C   0  0  0  0  0  0  0  0  0  0  0  0
    1.4815   -5.3057   -1.0405 C   0  0  0  0  0  0  0  0  0  0  0  0
    1.4341   -4.5701   -2.3133 C   0  0  0  0  0  0  0  0  0  0  0  0
    2.4867   -3.5962   -2.6552 C   0  0  0  0  0  0  0  0  0  0  0  0
    2.1475   -2.5224   -3.6415 C   0  0  0  0  0  0  0  0  0  0  0  0
    0.9326   -1.9168   -3.2808 F   0  0  0  0  0  0  0  0  0  0  0  0
    2.1778   -2.8447   -4.9570 F   0  0  0  0  0  0  0  0  0  0  0  0
    3.3735   -1.2219   -3.3720 S   0  0  0  0  0  0  0  0  0  0  0  0
    4.7300   -1.7253   -3.8059 O   0  0  0  0  0  0  0  0  0  0  0  0
    3.4859   -0.8828   -1.9132 O   0  0  0  0  0  0  0  0  0  0  0  0
    3.0245    0.1310   -4.2646 O   0  0  0  0  0  0  0  0  0  0  0  0
    3.7133   -4.1553   -2.9986 F   0  0  0  0  0  0  0  0  0  0  0  0
    2.8214   -2.8578   -1.4759 F   0  0  0  0  0  0  0  0  0  0  0  0
    1.3320   -5.4873   -3.3893 F   0  0  0  0  0  0  0  0  0  0  0  0
    0.2089   -3.8671   -2.4262 F   0  0  0  0  0  0  0  0  0  0  0  0
    2.7362   -5.9020   -0.9619 F   0  0  0  0  0  0  0  0  0  0  0  0
    1.4842   -4.3831    0.0151 F   0  0  0  0  0  0  0  0  0  0  0  0
    0.1551   -6.6400    0.6509 C   0  0  0  0  0  0  0  0  0  0  0  0
   -1.0060   -7.4239    1.0636 C   0  0  0  0  0  0  0  0  0  0  0  0
   -1.0179   -8.0041    2.4342 C   0  0  0  0  0  0  0  0  0  0  0  0
    0.1840   -8.4705    2.9015 F   0  0  0  0  0  0  0  0  0  0  0  0
   -2.0392   -8.9174    2.6064 F   0  0  0  0  0  0  0  0  0  0  0  0
   -1.3461   -6.9417    3.2912 F   0  0  0  0  0  0  0  0  0  0  0  0
   -1.0059   -8.5645    0.2137 F   0  0  0  0  0  0  0  0  0  0  0  0
   -2.2526   -6.8670    0.7944 F   0  0  0  0  0  0  0  0  0  0  0  0
    1.2979   -7.3448    1.0600 F   0  0  0  0  0  0  0  0  0  0  0  0
    0.1745   -5.4563    1.3999 F   0  0  0  0  0  0  0  0  0  0  0  0
    0.4801   -7.4029   -1.5931 F   0  0  0  0  0  0  0  0  0  0  0  0
   -0.8120   -5.6946   -1.1815 F   0  0  0  0  0  0  0  0  0  0  0  0
  1  2  1  0
  2  3  1  0
  3  4  1  0
  4  5  1  0
  5  6  1  0
  5  7  1  0
  5  8  1  0
  8  9  2  0
  8 10  2  0
  8 11  1  0
  4 12  1  0
  4 13  1  0
  3 14  1  0
  3 15  1  0
  2 16  1  0
  2 17  1  0
  1 18  1  0
 18 19  1  0
 19 20  1  0
 20 21  1  0
 20 22  1  0
 20 23  1  0
 19 24  1  0
 19 25  1  0
 18 26  1  0
 18 27  1  0
  1 28  1  0
  1 29  1  0
M  END
$$$$
