
     RDKit          3D

 29 28  0  0  0  0  0  0  0  0999 V2000
   -8.2796    9.0195    9.7364 C   0  0  0  0  0  0  0  0  0  0  0  0
   -8.4598    8.7589   11.1990 C   0  0  0  0  0  0  0  0  0  0  0  0
   -7.9747    7.4708   11.7175 C   0  0  0  0  0  0  0  0  0  0  0  0
   -8.1376    7.1277   13.1420 C   0  0  0  0  0  0  0  0  0  0  0  0
   -8.4248    5.6992   13.4854 C   0  0  0  0  0  0  0  0  0  0  0  0
   -7.2924    4.9126   13.2176 F   0  0  0  0  0  0  0  0  0  0  0  0
   -9.5529    5.1456   12.9794 F   0  0  0  0  0  0  0  0  0  0  0  0
   -8.5604    5.6592   15.2873 S   0  0  0  0  0  0  0  0  0  0  0  0
   -7.3361    6.3082   15.8886 O   0  0  0  0  0  0  0  0  0  0  0  0
   -8.5910    4.2453   15.7930 O   0  0  0  0  0  0  0  0  0  0  0  0
   -9.8899    6.4997   15.8114 O   0  0  0  0  0  0  0  0  0  0  0  0
   -9.0139    7.9475   13.8458 F   0  0  0  0  0  0  0  0  0  0  0  0
   -6.8990    7.3787   13.8133 F   0  0  0  0  0  0  0  0  0  0  0  0
   -8.5286    6.4120   10.9549 F   0  0  0  0  0  0  0  0  0  0  0  0
   -6.5926    7.3222   11.4423 F   0  0  0  0  0  0  0  0  0  0  0  0
   -9.7862    8.8852   11.5996 F   0  0  0  0  0  0  0  0  0  0  0  0
   -7.8058    9.7955   11.8797 F   0  0  0  0  0  0  0  0  0  0  0  0
   -8.7723   10.3234    9.2356 C   0  0  0  0  0  0  0  0  0  0  0  0
   -8.4396   10.7976    7.8948 C   0  0  0  0  0  0  0  0  0  0  0  0
   -9.1127   12.0257    7.3907 C   0  0  0  0  0  0  0  0  0  0  0  0
   -8.8748   13.1764    8.0975 F   0  0  0  0  0  0  0  0  0  0  0  0
  -10.4577   11.8239    7.1515 F   0  0  0  0  0  0  0  0  0  0  0  0
   -8.5607   12.2652    6.1223 F   0  0  0  0  0  0  0  0  0  0  0  0
   -8.8959    9.7769    7.0154 F   0  0  0  0  0  0  0  0  0  0  0  0
   -7.0851   10.8600    7.5819 F   0  0  0  0  0  0  0  0  0  0  0  0
  -10.1724   10.2806    9.3246 F   0  0  0  0  0  0  0  0  0  0  0  0
   -8.3824   11.3036   10.1572 F   0  0  0  0  0  0  0  0  0  0  0  0
   -8.7624    7.9455    8.9734 F   0  0  0  0  0  0  0  0  0  0  0  0
   -6.9243    9.0122    9.4641 F   0  0  0  0  0  0  0  0  0  0  0  0
  1  2  1  0
  2  3  1  0
  3  4  1  0
  4  5  1  0
  5  6  1  0
  5  7  1  0
  5  8  1  0
  8  9  2  0
  8 10  2  0
  8 11  1  0
  4 12  1  0
  4 13  1  0
  3 14  1  0
  3 15  1  0
  2 16  1  0
  2 17  1  0
  1 18  1  0
 18 19  1  0
 19 20  1  0
 20 21  1  0
 20 22  1  0
 20 23  1  0
 19 24  1  0
 19 25  1  0
 18 26  1  0
 18 27  1  0
  1 28  1  0
  1 29  1  0
M  END
$$$$
