
     RDKit          3D

 29 28  0  0  0  0  0  0  0  0999 V2000
    0.2977   -4.5594   -2.3491 C   0  0  0  0  0  0  0  0  0  0  0  0
   -0.3538   -3.7039   -3.3898 C   0  0  0  0  0  0  0  0  0  0  0  0
   -1.6167   -3.0443   -3.0245 C   0  0  0  0  0  0  0  0  0  0  0  0
   -2.3359   -2.2090   -4.0034 C   0  0  0  0  0  0  0  0  0  0  0  0
   -3.6453   -1.6168   -3.5842 C   0  0  0  0  0  0  0  0  0  0  0  0
   -3.4263   -0.6294   -2.6095 F   0  0  0  0  0  0  0  0  0  0  0  0
   -4.6341   -2.4695   -3.2230 F   0  0  0  0  0  0  0  0  0  0  0  0
   -4.2286   -0.6840   -5.0183 S   0  0  0  0  0  0  0  0  0  0  0  0
   -3.2625    0.4425   -5.3001 O   0  0  0  0  0  0  0  0  0  0  0  0
   -5.5614   -0.0497   -4.7413 O   0  0  0  0  0  0  0  0  0  0  0  0
   -4.3024   -1.6401   -6.3708 O   0  0  0  0  0  0  0  0  0  0  0  0
   -2.4792   -2.7767   -5.2653 F   0  0  0  0  0  0  0  0  0  0  0  0
   -1.5371   -1.0568   -4.2898 F   0  0  0  0  0  0  0  0  0  0  0  0
   -2.5307   -4.0079   -2.5287 F   0  0  0  0  0  0  0  0  0  0  0  0
   -1.4277   -2.2238   -1.8847 F   0  0  0  0  0  0  0  0  0  0  0  0
   -0.5841   -4.3954   -4.5750 F   0  0  0  0  0  0  0  0  0  0  0  0
    0.5802   -2.7232   -3.7522 F   0  0  0  0  0  0  0  0  0  0  0  0
    1.7787   -4.5783   -2.3466 C   0  0  0  0  0  0  0  0  0  0  0  0
    2.5329   -4.8866   -1.1345 C   0  0  0  0  0  0  0  0  0  0  0  0
    4.0192   -4.8319   -1.1922 C   0  0  0  0  0  0  0  0  0  0  0  0
    4.6072   -5.5079   -2.2303 F   0  0  0  0  0  0  0  0  0  0  0  0
    4.6008   -5.1279    0.0247 F   0  0  0  0  0  0  0  0  0  0  0  0
    4.3389   -3.4836   -1.4175 F   0  0  0  0  0  0  0  0  0  0  0  0
    2.2554   -6.2548   -0.8617 F   0  0  0  0  0  0  0  0  0  0  0  0
    2.0998   -4.2685    0.0346 F   0  0  0  0  0  0  0  0  0  0  0  0
    2.1664   -5.5080   -3.3240 F   0  0  0  0  0  0  0  0  0  0  0  0
    2.2169   -3.3399   -2.8333 F   0  0  0  0  0  0  0  0  0  0  0  0
   -0.2458   -5.8530   -2.3524 F   0  0  0  0  0  0  0  0  0  0  0  0
   -0.0634   -4.0718   -1.1069 F   0  0  0  0  0  0  0  0  0  0  0  0
  1  2  1  0
  2  3  1  0
  3  4  1  0
  4  5  1  0
  5  6  1  0
  5  7  1  0
  5  8  1  0
  8  9  2  0
  8 10  2  0
  8 11  1  0
  4 12  1  0
  4 13  1  0
  3 14  1  0
  3 15  1  0
  2 16  1  0
  2 17  1  0
  1 18  1  0
 18 19  1  0
 19 20  1  0
 20 21  1  0
 20 22  1  0
 20 23  1  0
 19 24  1  0
 19 25  1  0
 18 26  1  0
 18 27  1  0
  1 28  1  0
  1 29  1  0
M  END
$$$$
