
     RDKit          3D

 29 28  0  0  0  0  0  0  0  0999 V2000
   -7.9893    9.4845    9.6041 C   0  0  0  0  0  0  0  0  0  0  0  0
   -8.4695    8.1669   10.1264 C   0  0  0  0  0  0  0  0  0  0  0  0
   -7.8553    7.6707   11.3673 C   0  0  0  0  0  0  0  0  0  0  0  0
   -8.4688    6.5570   12.1133 C   0  0  0  0  0  0  0  0  0  0  0  0
   -7.8350    6.1540   13.4083 C   0  0  0  0  0  0  0  0  0  0  0  0
   -7.6151    7.2927   14.2007 F   0  0  0  0  0  0  0  0  0  0  0  0
   -6.7378    5.3613   13.3514 F   0  0  0  0  0  0  0  0  0  0  0  0
   -9.1155    5.2465   14.3048 S   0  0  0  0  0  0  0  0  0  0  0  0
   -8.5735    4.8303   15.6519 O   0  0  0  0  0  0  0  0  0  0  0  0
   -9.4867    3.9841   13.5807 O   0  0  0  0  0  0  0  0  0  0  0  0
  -10.4537    6.1899   14.5652 O   0  0  0  0  0  0  0  0  0  0  0  0
   -8.7227    5.4159   11.3593 F   0  0  0  0  0  0  0  0  0  0  0  0
   -9.7881    6.9473   12.5070 F   0  0  0  0  0  0  0  0  0  0  0  0
   -6.5008    7.3302   11.1246 F   0  0  0  0  0  0  0  0  0  0  0  0
   -7.7164    8.7279   12.3007 F   0  0  0  0  0  0  0  0  0  0  0  0
   -8.3574    7.1508    9.1825 F   0  0  0  0  0  0  0  0  0  0  0  0
   -9.8523    8.2878   10.3232 F   0  0  0  0  0  0  0  0  0  0  0  0
   -8.8406   10.1364    8.5825 C   0  0  0  0  0  0  0  0  0  0  0  0
   -8.6407   11.5331    8.2052 C   0  0  0  0  0  0  0  0  0  0  0  0
   -9.2310   12.0125    6.9257 C   0  0  0  0  0  0  0  0  0  0  0  0
  -10.5872   11.8596    6.7932 F   0  0  0  0  0  0  0  0  0  0  0  0
   -8.5393   11.5479    5.8245 F   0  0  0  0  0  0  0  0  0  0  0  0
   -9.0252   13.4011    6.9117 F   0  0  0  0  0  0  0  0  0  0  0  0
   -7.2392   11.6665    8.0018 F   0  0  0  0  0  0  0  0  0  0  0  0
   -8.8768   12.4794    9.1979 F   0  0  0  0  0  0  0  0  0  0  0  0
   -8.7174    9.3695    7.4135 F   0  0  0  0  0  0  0  0  0  0  0  0
  -10.1742    9.9756    8.9801 F   0  0  0  0  0  0  0  0  0  0  0  0
   -6.6483    9.4036    9.1990 F   0  0  0  0  0  0  0  0  0  0  0  0
   -7.9431   10.3730   10.6622 F   0  0  0  0  0  0  0  0  0  0  0  0
  1  2  1  0
  2  3  1  0
  3  4  1  0
  4  5  1  0
  5  6  1  0
  5  7  1  0
  5  8  1  0
  8  9  2  0
  8 10  2  0
  8 11  1  0
  4 12  1  0
  4 13  1  0
  3 14  1  0
  3 15  1  0
  2 16  1  0
  2 17  1  0
  1 18  1  0
 18 19  1  0
 19 20  1  0
 20 21  1  0
 20 22  1  0
 20 23  1  0
 19 24  1  0
 19 25  1  0
 18 26  1  0
 18 27  1  0
  1 28  1  0
  1 29  1  0
M  END
$$$$
