
     RDKit          3D

 29 28  0  0  0  0  0  0  0  0999 V2000
    0.5175   -4.3256   -3.0214 C   0  0  0  0  0  0  0  0  0  0  0  0
   -0.3049   -3.0774   -3.0916 C   0  0  0  0  0  0  0  0  0  0  0  0
   -1.6237   -3.1759   -3.7355 C   0  0  0  0  0  0  0  0  0  0  0  0
   -2.4763   -1.9823   -3.8827 C   0  0  0  0  0  0  0  0  0  0  0  0
   -3.8007   -2.1522   -4.5595 C   0  0  0  0  0  0  0  0  0  0  0  0
   -4.6843   -2.8307   -3.7040 F   0  0  0  0  0  0  0  0  0  0  0  0
   -3.8059   -2.6782   -5.8079 F   0  0  0  0  0  0  0  0  0  0  0  0
   -4.4987   -0.4884   -4.6676 S   0  0  0  0  0  0  0  0  0  0  0  0
   -4.8790   -0.0221   -3.2821 O   0  0  0  0  0  0  0  0  0  0  0  0
   -5.7592   -0.4862   -5.4842 O   0  0  0  0  0  0  0  0  0  0  0  0
   -3.3985    0.5890   -5.2819 O   0  0  0  0  0  0  0  0  0  0  0  0
   -1.8365   -0.8668   -4.4134 F   0  0  0  0  0  0  0  0  0  0  0  0
   -2.8373   -1.5193   -2.5777 F   0  0  0  0  0  0  0  0  0  0  0  0
   -1.4843   -3.7646   -5.0175 F   0  0  0  0  0  0  0  0  0  0  0  0
   -2.4222   -4.1386   -3.0695 F   0  0  0  0  0  0  0  0  0  0  0  0
    0.3726   -2.0313   -3.7100 F   0  0  0  0  0  0  0  0  0  0  0  0
   -0.4773   -2.6301   -1.7741 F   0  0  0  0  0  0  0  0  0  0  0  0
    1.7357   -4.2637   -2.1813 C   0  0  0  0  0  0  0  0  0  0  0  0
    2.5247   -5.4595   -1.8971 C   0  0  0  0  0  0  0  0  0  0  0  0
    3.8834   -5.2894   -1.3138 C   0  0  0  0  0  0  0  0  0  0  0  0
    4.7154   -4.4180   -1.9685 F   0  0  0  0  0  0  0  0  0  0  0  0
    4.4933   -6.4994   -1.0476 F   0  0  0  0  0  0  0  0  0  0  0  0
    3.6822   -4.7101   -0.0509 F   0  0  0  0  0  0  0  0  0  0  0  0
    2.7735   -6.0513   -3.1665 F   0  0  0  0  0  0  0  0  0  0  0  0
    1.8671   -6.4866   -1.2270 F   0  0  0  0  0  0  0  0  0  0  0  0
    2.5939   -3.3364   -2.7926 F   0  0  0  0  0  0  0  0  0  0  0  0
    1.3776   -3.6741   -0.9622 F   0  0  0  0  0  0  0  0  0  0  0  0
    0.7881   -4.8197   -4.3065 F   0  0  0  0  0  0  0  0  0  0  0  0
   -0.2620   -5.3208   -2.4616 F   0  0  0  0  0  0  0  0  0  0  0  0
  1  2  1  0
  2  3  1  0
  3  4  1  0
  4  5  1  0
  5  6  1  0
  5  7  1  0
  5  8  1  0
  8  9  2  0
  8 10  2  0
  8 11  1  0
  4 12  1  0
  4 13  1  0
  3 14  1  0
  3 15  1  0
  2 16  1  0
  2 17  1  0
  1 18  1  0
 18 19  1  0
 19 20  1  0
 20 21  1  0
 20 22  1  0
 20 23  1  0
 19 24  1  0
 19 25  1  0
 18 26  1  0
 18 27  1  0
  1 28  1  0
  1 29  1  0
M  END
$$$$
