
     RDKit          3D

  5  4  0  0  0  0  0  0  0  0999 V2000
   12.9855   -1.7048  -12.9353 C   0  0  0  0  0  0  0  0  0  0  0  0
   12.7682   -0.2958  -12.5013 C   0  0  0  0  0  0  0  0  0  0  0  0
   13.4490    0.6524  -13.0187 O   0  0  0  0  0  0  0  0  0  0  0  0
   11.8358    0.0588  -11.5330 O   0  0  0  0  0  0  0  0  0  0  0  0
   12.8894   -2.4846  -11.8092 F   0  0  0  0  0  0  0  0  0  0  0  0
  1  2  1  0
  2  3  2  0
  2  4  1  0
  1  5  1  0
M  END
$$$$
