
     RDKit          3D

  5  4  0  0  0  0  0  0  0  0999 V2000
  -15.6950  -11.2611   -1.7690 C   0  0  0  0  0  0  0  0  0  0  0  0
  -16.5561  -10.9076   -2.9327 C   0  0  0  0  0  0  0  0  0  0  0  0
  -16.1229  -11.0522   -4.1251 O   0  0  0  0  0  0  0  0  0  0  0  0
  -17.8475  -10.4127   -2.7913 O   0  0  0  0  0  0  0  0  0  0  0  0
  -14.4433  -11.5238   -2.2687 F   0  0  0  0  0  0  0  0  0  0  0  0
  1  2  1  0
  2  3  2  0
  2  4  1  0
  1  5  1  0
M  END
$$$$
