
     RDKit          3D

  5  4  0  0  0  0  0  0  0  0999 V2000
   -4.4924   -0.4728  -18.8782 C   0  0  0  0  0  0  0  0  0  0  0  0
   -5.6658    0.1963  -19.5281 C   0  0  0  0  0  0  0  0  0  0  0  0
   -5.5353    0.7530  -20.6479 O   0  0  0  0  0  0  0  0  0  0  0  0
   -6.9197    0.2319  -18.9392 O   0  0  0  0  0  0  0  0  0  0  0  0
   -3.3909   -0.2927  -19.6597 F   0  0  0  0  0  0  0  0  0  0  0  0
  1  2  1  0
  2  3  2  0
  2  4  1  0
  1  5  1  0
M  END
$$$$
