
     RDKit          3D

  5  4  0  0  0  0  0  0  0  0999 V2000
    8.3235   -3.2508   -6.5852 C   0  0  0  0  0  0  0  0  0  0  0  0
    8.9760   -4.1102   -7.6257 C   0  0  0  0  0  0  0  0  0  0  0  0
    8.3810   -5.1243   -8.0715 O   0  0  0  0  0  0  0  0  0  0  0  0
   10.2356   -3.8340   -8.1331 O   0  0  0  0  0  0  0  0  0  0  0  0
    7.3015   -3.9467   -6.0129 F   0  0  0  0  0  0  0  0  0  0  0  0
  1  2  1  0
  2  3  2  0
  2  4  1  0
  1  5  1  0
M  END
$$$$
