
     RDKit          3D

  4  3  0  0  0  0  0  0  0  0999 V2000
  -13.3684   -7.5949   -0.3064 C   0  0  0  0  0  0  0  0  0  0  0  0
  -13.9609   -6.3400    0.3086 C   0  0  0  0  0  0  0  0  0  0  0  0
  -15.1846   -5.6473   -0.7678 Cl  0  0  0  0  0  0  0  0  0  0  0  0
  -11.8605   -7.9422    0.5456 Cl  0  0  0  0  0  0  0  0  0  0  0  0
  1  2  1  0
  2  3  1  0
  1  4  1  0
M  END
$$$$
