
     RDKit          3D

  4  3  0  0  0  0  0  0  0  0999 V2000
   -1.1810   -9.9510   -1.8894 C   0  0  0  0  0  0  0  0  0  0  0  0
   -1.2434   -9.0430   -0.6746 C   0  0  0  0  0  0  0  0  0  0  0  0
   -2.4007   -9.6762    0.5067 Cl  0  0  0  0  0  0  0  0  0  0  0  0
    0.0693   -9.3155   -2.9632 Cl  0  0  0  0  0  0  0  0  0  0  0  0
  1  2  1  0
  2  3  1  0
  1  4  1  0
M  END
$$$$
