
     RDKit          3D

  4  3  0  0  0  0  0  0  0  0999 V2000
   -1.3395   -9.4923   -0.9446 C   0  0  0  0  0  0  0  0  0  0  0  0
   -0.3518   -9.7061    0.1881 C   0  0  0  0  0  0  0  0  0  0  0  0
   -1.2084  -10.1374    1.6767 Cl  0  0  0  0  0  0  0  0  0  0  0  0
   -0.4301   -9.5424   -2.4581 Cl  0  0  0  0  0  0  0  0  0  0  0  0
  1  2  1  0
  2  3  1  0
  1  4  1  0
M  END
$$$$
