
     RDKit          3D

  4  3  0  0  0  0  0  0  0  0999 V2000
   12.3879    4.3876   -2.6586 C   0  0  0  0  0  0  0  0  0  0  0  0
   10.8816    4.3634   -2.8451 C   0  0  0  0  0  0  0  0  0  0  0  0
   10.3145    5.9221   -3.4653 Cl  0  0  0  0  0  0  0  0  0  0  0  0
   12.8506    2.8706   -1.8811 Cl  0  0  0  0  0  0  0  0  0  0  0  0
  1  2  1  0
  2  3  1  0
  1  4  1  0
M  END
$$$$
