
     RDKit          3D

 29 28  0  0  0  0  0  0  0  0999 V2000
   -7.3497   -3.1442   -1.1459 C   0  0  0  0  0  0  0  0  0  0  0  0
   -7.2224   -4.3184   -2.0695 C   0  0  0  0  0  0  0  0  0  0  0  0
   -8.0697   -4.3474   -3.2817 C   0  0  0  0  0  0  0  0  0  0  0  0
   -8.0021   -5.5608   -4.1490 C   0  0  0  0  0  0  0  0  0  0  0  0
   -8.9080   -5.6113   -5.3167 C   0  0  0  0  0  0  0  0  0  0  0  0
   -8.7250   -4.4509   -6.0968 F   0  0  0  0  0  0  0  0  0  0  0  0
  -10.2277   -5.4652   -4.8451 F   0  0  0  0  0  0  0  0  0  0  0  0
   -8.8415   -6.9529   -6.4041 S   0  0  0  0  0  0  0  0  0  0  0  0
   -7.5872   -6.9026   -7.2720 O   0  0  0  0  0  0  0  0  0  0  0  0
   -9.9733   -6.8288   -7.4240 O   0  0  0  0  0  0  0  0  0  0  0  0
   -8.9877   -8.4675   -5.7724 O   0  0  0  0  0  0  0  0  0  0  0  0
   -6.7017   -5.5274   -4.7209 F   0  0  0  0  0  0  0  0  0  0  0  0
   -7.9927   -6.7077   -3.3880 F   0  0  0  0  0  0  0  0  0  0  0  0
   -7.8103   -3.1781   -3.9850 F   0  0  0  0  0  0  0  0  0  0  0  0
   -9.3871   -4.1621   -2.8038 F   0  0  0  0  0  0  0  0  0  0  0  0
   -5.8702   -4.4448   -2.3407 F   0  0  0  0  0  0  0  0  0  0  0  0
   -7.5253   -5.4749   -1.3251 F   0  0  0  0  0  0  0  0  0  0  0  0
   -6.8381   -3.6578    0.2046 C   0  0  0  0  0  0  0  0  0  0  0  0
   -6.8973   -2.5793    1.2530 C   0  0  0  0  0  0  0  0  0  0  0  0
   -5.9753   -3.0145    2.3750 C   0  0  0  0  0  0  0  0  0  0  0  0
   -6.5882   -2.7823    3.6066 F   0  0  0  0  0  0  0  0  0  0  0  0
   -5.7019   -4.3563    2.2028 F   0  0  0  0  0  0  0  0  0  0  0  0
   -4.8525   -2.2324    2.3367 F   0  0  0  0  0  0  0  0  0  0  0  0
   -8.1762   -2.5817    1.7626 F   0  0  0  0  0  0  0  0  0  0  0  0
   -6.5388   -1.3686    0.7244 F   0  0  0  0  0  0  0  0  0  0  0  0
   -7.6648   -4.6958    0.5784 F   0  0  0  0  0  0  0  0  0  0  0  0
   -5.5718   -4.1240    0.0083 F   0  0  0  0  0  0  0  0  0  0  0  0
   -8.5908   -2.5912   -1.0700 F   0  0  0  0  0  0  0  0  0  0  0  0
   -6.3662   -2.2127   -1.5146 F   0  0  0  0  0  0  0  0  0  0  0  0
  1  2  1  0
  2  3  1  0
  3  4  1  0
  4  5  1  0
  5  6  1  0
  5  7  1  0
  5  8  1  0
  8  9  2  0
  8 10  2  0
  8 11  1  0
  4 12  1  0
  4 13  1  0
  3 14  1  0
  3 15  1  0
  2 16  1  0
  2 17  1  0
  1 18  1  0
 18 19  1  0
 19 20  1  0
 20 21  1  0
 20 22  1  0
 20 23  1  0
 19 24  1  0
 19 25  1  0
 18 26  1  0
 18 27  1  0
  1 28  1  0
  1 29  1  0
M  END
$$$$
