
     RDKit          3D

 15 16  0  0  0  0  0  0  0  0999 V2000
   13.7994  -52.8435   32.0824 C   0  0  0  0  0  0  0  0  0  0  0  0
   13.0023  -52.6564   30.8030 C   0  0  0  0  0  0  0  0  0  0  0  0
   12.2568  -51.3891   30.7746 C   0  0  0  0  0  0  0  0  0  0  0  0
   10.9064  -51.5418   31.1632 N   0  0  0  0  0  0  0  0  0  0  0  0
   10.6119  -52.8395   31.7223 C   0  0  0  0  0  0  0  0  0  0  0  0
   11.6921  -53.8605   30.7687 S   0  0  0  0  0  0  0  0  0  0  0  0
   11.1587  -54.0739   29.3970 O   0  0  0  0  0  0  0  0  0  0  0  0
   12.1043  -55.0958   31.4702 O   0  0  0  0  0  0  0  0  0  0  0  0
    9.2072  -52.6752   31.2460 C   0  0  0  0  0  0  0  0  0  0  0  0
    9.5381  -51.2174   31.3760 C   0  0  0  0  0  0  0  0  0  0  0  0
    8.8745  -50.1428   31.5875 O   0  0  0  0  0  0  0  0  0  0  0  0
   12.9648  -50.3507   31.6064 C   0  0  0  0  0  0  0  0  0  0  0  0
   14.1016  -50.6853   32.0581 O   0  0  0  0  0  0  0  0  0  0  0  0
   12.3962  -49.1086   31.8549 O   0  0  0  0  0  0  0  0  0  0  0  0
   13.8922  -52.8773   29.5864 C   0  0  0  0  0  0  0  0  0  0  0  0
  1  2  1  0
  2  3  1  0
  3  4  1  0
  4  5  1  0
  5  6  1  0
  6  7  2  0
  6  8  2  0
  5  9  1  0
  9 10  1  0
 10 11  2  0
  3 12  1  0
 12 13  2  0
 12 14  1  0
  2 15  1  0
  6  2  1  0
 10  4  1  0
M  END
$$$$
