
     RDKit          3D

 15 16  0  0  0  0  0  0  0  0999 V2000
   12.3827  -51.1715   30.2922 C   0  0  0  0  0  0  0  0  0  0  0  0
   12.8592  -52.4461   30.9671 C   0  0  0  0  0  0  0  0  0  0  0  0
   13.7035  -53.2741   30.0929 C   0  0  0  0  0  0  0  0  0  0  0  0
   12.9814  -54.3112   29.4600 N   0  0  0  0  0  0  0  0  0  0  0  0
   11.5512  -54.1952   29.6170 C   0  0  0  0  0  0  0  0  0  0  0  0
   11.4542  -53.5043   31.2391 S   0  0  0  0  0  0  0  0  0  0  0  0
   11.7175  -54.5343   32.2791 O   0  0  0  0  0  0  0  0  0  0  0  0
   10.2338  -52.6989   31.4627 O   0  0  0  0  0  0  0  0  0  0  0  0
   11.4624  -55.6790   29.4848 C   0  0  0  0  0  0  0  0  0  0  0  0
   12.7324  -55.4923   28.7077 C   0  0  0  0  0  0  0  0  0  0  0  0
   13.3339  -56.1242   27.7703 O   0  0  0  0  0  0  0  0  0  0  0  0
   14.4275  -52.4064   29.0956 C   0  0  0  0  0  0  0  0  0  0  0  0
   13.8029  -52.1625   28.0192 O   0  0  0  0  0  0  0  0  0  0  0  0
   15.6990  -51.9114   29.3524 O   0  0  0  0  0  0  0  0  0  0  0  0
   13.4916  -52.1278   32.3160 C   0  0  0  0  0  0  0  0  0  0  0  0
  1  2  1  0
  2  3  1  0
  3  4  1  0
  4  5  1  0
  5  6  1  0
  6  7  2  0
  6  8  2  0
  5  9  1  0
  9 10  1  0
 10 11  2  0
  3 12  1  0
 12 13  2  0
 12 14  1  0
  2 15  1  0
  6  2  1  0
 10  4  1  0
M  END
$$$$
