
     RDKit          3D

 15 16  0  0  0  0  0  0  0  0999 V2000
    5.8988  -42.4826   -0.9978 C   0  0  0  0  0  0  0  0  0  0  0  0
    5.7603  -42.7784    0.4856 C   0  0  0  0  0  0  0  0  0  0  0  0
    6.8977  -43.5385    1.0253 C   0  0  0  0  0  0  0  0  0  0  0  0
    6.6418  -44.9268    1.0958 N   0  0  0  0  0  0  0  0  0  0  0  0
    5.4320  -45.3240    0.4160 C   0  0  0  0  0  0  0  0  0  0  0  0
    4.4101  -43.9151    0.7147 S   0  0  0  0  0  0  0  0  0  0  0  0
    3.8983  -43.9082    2.1110 O   0  0  0  0  0  0  0  0  0  0  0  0
    3.3764  -43.7085   -0.3230 O   0  0  0  0  0  0  0  0  0  0  0  0
    5.3307  -46.4721    1.3640 C   0  0  0  0  0  0  0  0  0  0  0  0
    6.8196  -46.2973    1.4318 C   0  0  0  0  0  0  0  0  0  0  0  0
    7.8202  -47.0555    1.6838 O   0  0  0  0  0  0  0  0  0  0  0  0
    8.1454  -43.2386    0.2347 C   0  0  0  0  0  0  0  0  0  0  0  0
    8.1115  -43.5553   -0.9928 O   0  0  0  0  0  0  0  0  0  0  0  0
    9.2559  -42.6516    0.8263 O   0  0  0  0  0  0  0  0  0  0  0  0
    5.4505  -41.5004    1.2548 C   0  0  0  0  0  0  0  0  0  0  0  0
  1  2  1  0
  2  3  1  0
  3  4  1  0
  4  5  1  0
  5  6  1  0
  6  7  2  0
  6  8  2  0
  5  9  1  0
  9 10  1  0
 10 11  2  0
  3 12  1  0
 12 13  2  0
 12 14  1  0
  2 15  1  0
  6  2  1  0
 10  4  1  0
M  END
$$$$
