
     RDKit          3D

 15 16  0  0  0  0  0  0  0  0999 V2000
   19.3837  -44.8812   -6.7872 C   0  0  0  0  0  0  0  0  0  0  0  0
   18.0230  -44.2061   -6.7783 C   0  0  0  0  0  0  0  0  0  0  0  0
   16.9704  -45.0500   -6.1931 C   0  0  0  0  0  0  0  0  0  0  0  0
   16.2174  -45.7393   -7.1707 N   0  0  0  0  0  0  0  0  0  0  0  0
   16.7819  -45.6554   -8.4965 C   0  0  0  0  0  0  0  0  0  0  0  0
   17.4663  -44.0280   -8.4594 S   0  0  0  0  0  0  0  0  0  0  0  0
   16.4050  -42.9950   -8.5950 O   0  0  0  0  0  0  0  0  0  0  0  0
   18.6177  -43.8537   -9.3715 O   0  0  0  0  0  0  0  0  0  0  0  0
   15.4036  -45.8196   -9.0442 C   0  0  0  0  0  0  0  0  0  0  0  0
   15.1775  -46.5255   -7.7394 C   0  0  0  0  0  0  0  0  0  0  0  0
   14.3881  -47.4416   -7.3183 O   0  0  0  0  0  0  0  0  0  0  0  0
   17.5640  -45.9916   -5.1769 C   0  0  0  0  0  0  0  0  0  0  0  0
   18.8069  -45.8609   -4.9619 O   0  0  0  0  0  0  0  0  0  0  0  0
   16.7865  -46.9387   -4.5240 O   0  0  0  0  0  0  0  0  0  0  0  0
   18.1225  -42.8202   -6.1537 C   0  0  0  0  0  0  0  0  0  0  0  0
  1  2  1  0
  2  3  1  0
  3  4  1  0
  4  5  1  0
  5  6  1  0
  6  7  2  0
  6  8  2  0
  5  9  1  0
  9 10  1  0
 10 11  2  0
  3 12  1  0
 12 13  2  0
 12 14  1  0
  2 15  1  0
  6  2  1  0
 10  4  1  0
M  END
$$$$
