
     RDKit          3D

 15 16  0  0  0  0  0  0  0  0999 V2000
   14.6738  -54.1278    7.0600 C   0  0  0  0  0  0  0  0  0  0  0  0
   14.2958  -54.6676    5.6915 C   0  0  0  0  0  0  0  0  0  0  0  0
   13.2936  -55.7418    5.7579 C   0  0  0  0  0  0  0  0  0  0  0  0
   13.8711  -57.0307    5.7044 N   0  0  0  0  0  0  0  0  0  0  0  0
   15.3088  -57.0228    5.8327 C   0  0  0  0  0  0  0  0  0  0  0  0
   15.7036  -55.5134    5.0056 S   0  0  0  0  0  0  0  0  0  0  0  0
   15.6047  -55.6670    3.5297 O   0  0  0  0  0  0  0  0  0  0  0  0
   16.9614  -54.8955    5.4793 O   0  0  0  0  0  0  0  0  0  0  0  0
   15.3411  -58.2837    5.0352 C   0  0  0  0  0  0  0  0  0  0  0  0
   13.9588  -58.4462    5.5961 C   0  0  0  0  0  0  0  0  0  0  0  0
   13.1888  -59.4340    5.8627 O   0  0  0  0  0  0  0  0  0  0  0  0
   12.4248  -55.5676    6.9772 C   0  0  0  0  0  0  0  0  0  0  0  0
   12.9976  -55.7472    8.0942 O   0  0  0  0  0  0  0  0  0  0  0  0
   11.0821  -55.2311    6.8695 O   0  0  0  0  0  0  0  0  0  0  0  0
   13.9168  -53.5258    4.7569 C   0  0  0  0  0  0  0  0  0  0  0  0
  1  2  1  0
  2  3  1  0
  3  4  1  0
  4  5  1  0
  5  6  1  0
  6  7  2  0
  6  8  2  0
  5  9  1  0
  9 10  1  0
 10 11  2  0
  3 12  1  0
 12 13  2  0
 12 14  1  0
  2 15  1  0
  6  2  1  0
 10  4  1  0
M  END
$$$$
