
     RDKit          3D

  5  4  0  0  0  0  0  0  0  0999 V2000
   16.3506    4.8140   -7.8858 C   0  0  0  0  0  0  0  0  0  0  0  0
   17.1464    5.9687   -7.3579 C   0  0  0  0  0  0  0  0  0  0  0  0
   18.2510    6.2001   -7.9290 O   0  0  0  0  0  0  0  0  0  0  0  0
   16.7114    6.7516   -6.3020 O   0  0  0  0  0  0  0  0  0  0  0  0
   16.9327    4.2948   -9.0360 F   0  0  0  0  0  0  0  0  0  0  0  0
  1  2  1  0
  2  3  2  0
  2  4  1  0
  1  5  1  0
M  END
$$$$
