
     RDKit          3D

  5  4  0  0  0  0  0  0  0  0999 V2000
   17.0878   -1.7621   -5.3501 C   0  0  0  0  0  0  0  0  0  0  0  0
   17.6993   -0.4453   -5.7211 C   0  0  0  0  0  0  0  0  0  0  0  0
   18.1495   -0.3447   -6.8989 O   0  0  0  0  0  0  0  0  0  0  0  0
   17.7761    0.6157   -4.8349 O   0  0  0  0  0  0  0  0  0  0  0  0
   17.0912   -2.6334   -6.4327 F   0  0  0  0  0  0  0  0  0  0  0  0
  1  2  1  0
  2  3  2  0
  2  4  1  0
  1  5  1  0
M  END
$$$$
