
     RDKit          3D

  5  4  0  0  0  0  0  0  0  0999 V2000
    7.8436    5.8845   -7.8872 C   0  0  0  0  0  0  0  0  0  0  0  0
    8.2567    7.2871   -7.5593 C   0  0  0  0  0  0  0  0  0  0  0  0
    9.2856    7.7246   -8.1508 O   0  0  0  0  0  0  0  0  0  0  0  0
    7.5613    8.0767   -6.6593 O   0  0  0  0  0  0  0  0  0  0  0  0
    8.6219    5.3655   -8.9150 F   0  0  0  0  0  0  0  0  0  0  0  0
  1  2  1  0
  2  3  2  0
  2  4  1  0
  1  5  1  0
M  END
$$$$
