
     RDKit          3D

  5  4  0  0  0  0  0  0  0  0999 V2000
   -9.2998    2.6025   -6.2226 C   0  0  0  0  0  0  0  0  0  0  0  0
  -10.4823    3.2418   -6.8846 C   0  0  0  0  0  0  0  0  0  0  0  0
  -10.3098    3.6587   -8.0663 O   0  0  0  0  0  0  0  0  0  0  0  0
  -11.7064    3.3775   -6.2518 O   0  0  0  0  0  0  0  0  0  0  0  0
   -9.5483    2.3764   -4.8741 F   0  0  0  0  0  0  0  0  0  0  0  0
  1  2  1  0
  2  3  2  0
  2  4  1  0
  1  5  1  0
M  END
$$$$
