
     RDKit          3D

  5  4  0  0  0  0  0  0  0  0999 V2000
    5.2102   11.1662   -9.8007 C   0  0  0  0  0  0  0  0  0  0  0  0
    6.6025   11.0677  -10.2949 C   0  0  0  0  0  0  0  0  0  0  0  0
    7.3588   10.1151   -9.9675 O   0  0  0  0  0  0  0  0  0  0  0  0
    7.0556   12.0875  -11.1506 O   0  0  0  0  0  0  0  0  0  0  0  0
    4.7990   10.0796   -9.0730 F   0  0  0  0  0  0  0  0  0  0  0  0
  1  2  1  0
  2  3  2  0
  2  4  1  0
  1  5  1  0
M  END
$$$$
