
     RDKit          3D

  5  4  0  0  0  0  0  0  0  0999 V2000
   -2.2765   16.4539   -8.5593 C   0  0  0  0  0  0  0  0  0  0  0  0
   -3.1345   15.4382   -9.2110 C   0  0  0  0  0  0  0  0  0  0  0  0
   -2.7081   14.7064  -10.1432 O   0  0  0  0  0  0  0  0  0  0  0  0
   -4.4571   15.3198   -8.7480 O   0  0  0  0  0  0  0  0  0  0  0  0
   -2.0678   16.2324   -7.2226 F   0  0  0  0  0  0  0  0  0  0  0  0
  1  2  1  0
  2  3  2  0
  2  4  1  0
  1  5  1  0
M  END
$$$$
