
     RDKit          3D

  5  4  0  0  0  0  0  0  0  0999 V2000
   12.1831    5.0729  -11.1294 C   0  0  0  0  0  0  0  0  0  0  0  0
   11.9915    6.5393  -11.0561 C   0  0  0  0  0  0  0  0  0  0  0  0
   12.9657    7.3376  -11.0437 O   0  0  0  0  0  0  0  0  0  0  0  0
   10.6690    7.0137  -10.9984 O   0  0  0  0  0  0  0  0  0  0  0  0
   13.4953    4.6860  -11.2180 F   0  0  0  0  0  0  0  0  0  0  0  0
  1  2  1  0
  2  3  2  0
  2  4  1  0
  1  5  1  0
M  END
$$$$
