
     RDKit          3D

  5  4  0  0  0  0  0  0  0  0999 V2000
    1.8247    4.4222  -13.3735 C   0  0  0  0  0  0  0  0  0  0  0  0
    1.3826    5.2037  -14.5509 C   0  0  0  0  0  0  0  0  0  0  0  0
    0.4943    6.0925  -14.4639 O   0  0  0  0  0  0  0  0  0  0  0  0
    1.9951    4.9138  -15.7830 O   0  0  0  0  0  0  0  0  0  0  0  0
    1.5780    5.0358  -12.1727 F   0  0  0  0  0  0  0  0  0  0  0  0
  1  2  1  0
  2  3  2  0
  2  4  1  0
  1  5  1  0
M  END
$$$$
