
     RDKit          3D

 29 28  0  0  0  0  0  0  0  0999 V2000
   -9.9311    1.3041   13.6041 C   0  0  0  0  0  0  0  0  0  0  0  0
   -9.2160    1.2746   14.8911 C   0  0  0  0  0  0  0  0  0  0  0  0
   -9.1776    2.5663   15.6601 C   0  0  0  0  0  0  0  0  0  0  0  0
   -8.7366    2.5825   17.0513 C   0  0  0  0  0  0  0  0  0  0  0  0
   -8.9285    3.8316   17.8538 C   0  0  0  0  0  0  0  0  0  0  0  0
  -10.3022    4.1353   17.9252 F   0  0  0  0  0  0  0  0  0  0  0  0
   -8.3803    4.9444   17.2171 F   0  0  0  0  0  0  0  0  0  0  0  0
   -8.2895    3.8595   19.4827 S   0  0  0  0  0  0  0  0  0  0  0  0
   -6.7921    3.6784   19.3942 O   0  0  0  0  0  0  0  0  0  0  0  0
   -8.8492    2.6465   20.2050 O   0  0  0  0  0  0  0  0  0  0  0  0
   -8.6426    5.2390   20.3203 O   0  0  0  0  0  0  0  0  0  0  0  0
   -7.3792    2.2828   17.1267 F   0  0  0  0  0  0  0  0  0  0  0  0
   -9.3281    1.5512   17.8238 F   0  0  0  0  0  0  0  0  0  0  0  0
  -10.3997    3.1797   15.4331 F   0  0  0  0  0  0  0  0  0  0  0  0
   -8.2812    3.3603   14.8876 F   0  0  0  0  0  0  0  0  0  0  0  0
   -9.6742    0.2310   15.7115 F   0  0  0  0  0  0  0  0  0  0  0  0
   -7.8610    0.9770   14.6793 F   0  0  0  0  0  0  0  0  0  0  0  0
  -10.0467   -0.0040   12.8681 C   0  0  0  0  0  0  0  0  0  0  0  0
  -10.8941   -0.0773   11.6696 C   0  0  0  0  0  0  0  0  0  0  0  0
  -11.0465   -1.4162   11.0278 C   0  0  0  0  0  0  0  0  0  0  0  0
   -9.7943   -1.7746   10.5542 F   0  0  0  0  0  0  0  0  0  0  0  0
  -11.8103   -1.2029    9.8712 F   0  0  0  0  0  0  0  0  0  0  0  0
  -11.6328   -2.3990   11.7319 F   0  0  0  0  0  0  0  0  0  0  0  0
  -10.1979    0.6717   10.6846 F   0  0  0  0  0  0  0  0  0  0  0  0
  -12.0943    0.6244   11.7502 F   0  0  0  0  0  0  0  0  0  0  0  0
  -10.5878   -0.8927   13.8072 F   0  0  0  0  0  0  0  0  0  0  0  0
   -8.7955   -0.4825   12.6024 F   0  0  0  0  0  0  0  0  0  0  0  0
  -11.3048    1.5602   13.8841 F   0  0  0  0  0  0  0  0  0  0  0  0
   -9.5277    2.3431   12.8220 F   0  0  0  0  0  0  0  0  0  0  0  0
  1  2  1  0
  2  3  1  0
  3  4  1  0
  4  5  1  0
  5  6  1  0
  5  7  1  0
  5  8  1  0
  8  9  2  0
  8 10  2  0
  8 11  1  0
  4 12  1  0
  4 13  1  0
  3 14  1  0
  3 15  1  0
  2 16  1  0
  2 17  1  0
  1 18  1  0
 18 19  1  0
 19 20  1  0
 20 21  1  0
 20 22  1  0
 20 23  1  0
 19 24  1  0
 19 25  1  0
 18 26  1  0
 18 27  1  0
  1 28  1  0
  1 29  1  0
M  END
$$$$
