
     RDKit          3D

 29 28  0  0  0  0  0  0  0  0999 V2000
    0.8523    1.1668   -5.2034 C   0  0  0  0  0  0  0  0  0  0  0  0
    1.2259    2.3104   -4.3543 C   0  0  0  0  0  0  0  0  0  0  0  0
    0.6125    3.6351   -4.7154 C   0  0  0  0  0  0  0  0  0  0  0  0
    1.2168    4.8786   -4.2479 C   0  0  0  0  0  0  0  0  0  0  0  0
    0.9606    6.1378   -5.0158 C   0  0  0  0  0  0  0  0  0  0  0  0
   -0.4112    6.4518   -4.9553 F   0  0  0  0  0  0  0  0  0  0  0  0
    1.1976    5.9690   -6.3795 F   0  0  0  0  0  0  0  0  0  0  0  0
    1.8573    7.5687   -4.5564 S   0  0  0  0  0  0  0  0  0  0  0  0
    1.7823    7.6974   -3.0528 O   0  0  0  0  0  0  0  0  0  0  0  0
    1.1302    8.7632   -5.1488 O   0  0  0  0  0  0  0  0  0  0  0  0
    3.4358    7.5588   -5.0439 O   0  0  0  0  0  0  0  0  0  0  0  0
    2.6009    4.7435   -4.1832 F   0  0  0  0  0  0  0  0  0  0  0  0
    0.8693    5.1846   -2.9078 F   0  0  0  0  0  0  0  0  0  0  0  0
   -0.7416    3.5124   -4.4459 F   0  0  0  0  0  0  0  0  0  0  0  0
    0.6505    3.6161   -6.1398 F   0  0  0  0  0  0  0  0  0  0  0  0
    1.0196    2.0312   -2.9936 F   0  0  0  0  0  0  0  0  0  0  0  0
    2.6055    2.5488   -4.4520 F   0  0  0  0  0  0  0  0  0  0  0  0
    1.6396    0.9859   -6.4737 C   0  0  0  0  0  0  0  0  0  0  0  0
    1.1317    0.0707   -7.5053 C   0  0  0  0  0  0  0  0  0  0  0  0
    2.0173   -0.1870   -8.6787 C   0  0  0  0  0  0  0  0  0  0  0  0
    3.2057    0.4830   -8.4342 F   0  0  0  0  0  0  0  0  0  0  0  0
    1.4407    0.5043   -9.7541 F   0  0  0  0  0  0  0  0  0  0  0  0
    2.2119   -1.4591   -9.0650 F   0  0  0  0  0  0  0  0  0  0  0  0
    0.0261    0.7494   -8.0823 F   0  0  0  0  0  0  0  0  0  0  0  0
    0.5225   -1.0849   -7.0226 F   0  0  0  0  0  0  0  0  0  0  0  0
    2.8788    0.4829   -6.0542 F   0  0  0  0  0  0  0  0  0  0  0  0
    1.9143    2.2111   -7.0108 F   0  0  0  0  0  0  0  0  0  0  0  0
    1.2187   -0.0210   -4.5063 F   0  0  0  0  0  0  0  0  0  0  0  0
   -0.4958    1.0783   -5.3730 F   0  0  0  0  0  0  0  0  0  0  0  0
  1  2  1  0
  2  3  1  0
  3  4  1  0
  4  5  1  0
  5  6  1  0
  5  7  1  0
  5  8  1  0
  8  9  2  0
  8 10  2  0
  8 11  1  0
  4 12  1  0
  4 13  1  0
  3 14  1  0
  3 15  1  0
  2 16  1  0
  2 17  1  0
  1 18  1  0
 18 19  1  0
 19 20  1  0
 20 21  1  0
 20 22  1  0
 20 23  1  0
 19 24  1  0
 19 25  1  0
 18 26  1  0
 18 27  1  0
  1 28  1  0
  1 29  1  0
M  END
$$$$
