
     RDKit          3D

 29 28  0  0  0  0  0  0  0  0999 V2000
  -15.1492    3.2540    5.8537 C   0  0  0  0  0  0  0  0  0  0  0  0
  -15.6667    4.5428    5.3642 C   0  0  0  0  0  0  0  0  0  0  0  0
  -17.1286    4.8049    5.5997 C   0  0  0  0  0  0  0  0  0  0  0  0
  -17.7859    5.9403    4.9603 C   0  0  0  0  0  0  0  0  0  0  0  0
  -19.2735    6.0673    5.0693 C   0  0  0  0  0  0  0  0  0  0  0  0
  -19.6527    5.9761    6.4228 F   0  0  0  0  0  0  0  0  0  0  0  0
  -19.9293    4.9910    4.4728 F   0  0  0  0  0  0  0  0  0  0  0  0
  -20.0197    7.5019    4.4005 S   0  0  0  0  0  0  0  0  0  0  0  0
  -19.5760    7.6248    2.9615 O   0  0  0  0  0  0  0  0  0  0  0  0
  -19.4529    8.6941    5.1514 O   0  0  0  0  0  0  0  0  0  0  0  0
  -21.6697    7.5032    4.4843 O   0  0  0  0  0  0  0  0  0  0  0  0
  -17.4984    5.9549    3.5981 F   0  0  0  0  0  0  0  0  0  0  0  0
  -17.2742    7.1868    5.4014 F   0  0  0  0  0  0  0  0  0  0  0  0
  -17.3121    4.7272    6.9714 F   0  0  0  0  0  0  0  0  0  0  0  0
  -17.7376    3.6034    5.1346 F   0  0  0  0  0  0  0  0  0  0  0  0
  -14.8958    5.6192    5.8325 F   0  0  0  0  0  0  0  0  0  0  0  0
  -15.5408    4.6103    3.9681 F   0  0  0  0  0  0  0  0  0  0  0  0
  -13.6792    2.9988    5.6530 C   0  0  0  0  0  0  0  0  0  0  0  0
  -13.0826    1.7782    6.2131 C   0  0  0  0  0  0  0  0  0  0  0  0
  -11.6932    1.4434    5.7827 C   0  0  0  0  0  0  0  0  0  0  0  0
  -11.2342    0.4636    6.6488 F   0  0  0  0  0  0  0  0  0  0  0  0
  -10.9153    2.5704    6.0855 F   0  0  0  0  0  0  0  0  0  0  0  0
  -11.4814    1.1326    4.4928 F   0  0  0  0  0  0  0  0  0  0  0  0
  -13.8504    0.7147    5.6696 F   0  0  0  0  0  0  0  0  0  0  0  0
  -13.2860    1.5933    7.5784 F   0  0  0  0  0  0  0  0  0  0  0  0
  -13.0433    4.0854    6.2691 F   0  0  0  0  0  0  0  0  0  0  0  0
  -13.3798    3.1151    4.3256 F   0  0  0  0  0  0  0  0  0  0  0  0
  -15.2100    3.2818    7.2772 F   0  0  0  0  0  0  0  0  0  0  0  0
  -15.9450    2.2130    5.4838 F   0  0  0  0  0  0  0  0  0  0  0  0
  1  2  1  0
  2  3  1  0
  3  4  1  0
  4  5  1  0
  5  6  1  0
  5  7  1  0
  5  8  1  0
  8  9  2  0
  8 10  2  0
  8 11  1  0
  4 12  1  0
  4 13  1  0
  3 14  1  0
  3 15  1  0
  2 16  1  0
  2 17  1  0
  1 18  1  0
 18 19  1  0
 19 20  1  0
 20 21  1  0
 20 22  1  0
 20 23  1  0
 19 24  1  0
 19 25  1  0
 18 26  1  0
 18 27  1  0
  1 28  1  0
  1 29  1  0
M  END
$$$$
