
     RDKit          3D

 29 28  0  0  0  0  0  0  0  0999 V2000
   -6.6898    1.9970   13.5141 C   0  0  0  0  0  0  0  0  0  0  0  0
   -7.9706    1.3889   13.9120 C   0  0  0  0  0  0  0  0  0  0  0  0
   -8.3738    1.5687   15.3495 C   0  0  0  0  0  0  0  0  0  0  0  0
   -9.6377    1.0229   15.8339 C   0  0  0  0  0  0  0  0  0  0  0  0
   -9.9396    1.0941   17.2984 C   0  0  0  0  0  0  0  0  0  0  0  0
   -9.7792    2.4203   17.7451 F   0  0  0  0  0  0  0  0  0  0  0  0
   -9.0097    0.3801   18.0533 F   0  0  0  0  0  0  0  0  0  0  0  0
  -11.5090    0.5354   17.8346 S   0  0  0  0  0  0  0  0  0  0  0  0
  -11.6992   -0.8716   17.3181 O   0  0  0  0  0  0  0  0  0  0  0  0
  -12.5512    1.4094   17.1590 O   0  0  0  0  0  0  0  0  0  0  0  0
  -11.7100    0.5668   19.4741 O   0  0  0  0  0  0  0  0  0  0  0  0
   -9.7438   -0.3208   15.4852 F   0  0  0  0  0  0  0  0  0  0  0  0
  -10.7632    1.6018   15.1949 F   0  0  0  0  0  0  0  0  0  0  0  0
   -8.1758    2.9108   15.6342 F   0  0  0  0  0  0  0  0  0  0  0  0
   -7.3054    0.9395   16.0521 F   0  0  0  0  0  0  0  0  0  0  0  0
   -9.0147    1.7815   13.0589 F   0  0  0  0  0  0  0  0  0  0  0  0
   -7.9066   -0.0048   13.7598 F   0  0  0  0  0  0  0  0  0  0  0  0
   -6.2578    1.7842   12.0878 C   0  0  0  0  0  0  0  0  0  0  0  0
   -5.6641    2.9052   11.3459 C   0  0  0  0  0  0  0  0  0  0  0  0
   -5.2351    2.6375    9.9416 C   0  0  0  0  0  0  0  0  0  0  0  0
   -3.8979    2.9926    9.8602 F   0  0  0  0  0  0  0  0  0  0  0  0
   -5.8980    3.5865    9.1500 F   0  0  0  0  0  0  0  0  0  0  0  0
   -5.4795    1.4238    9.4194 F   0  0  0  0  0  0  0  0  0  0  0  0
   -4.4376    3.1725   12.0092 F   0  0  0  0  0  0  0  0  0  0  0  0
   -6.3237    4.1235   11.4876 F   0  0  0  0  0  0  0  0  0  0  0  0
   -7.4311    1.4215   11.4123 F   0  0  0  0  0  0  0  0  0  0  0  0
   -5.4523    0.6833   12.0216 F   0  0  0  0  0  0  0  0  0  0  0  0
   -6.8689    3.4109   13.5168 F   0  0  0  0  0  0  0  0  0  0  0  0
   -5.7089    1.7609   14.4284 F   0  0  0  0  0  0  0  0  0  0  0  0
  1  2  1  0
  2  3  1  0
  3  4  1  0
  4  5  1  0
  5  6  1  0
  5  7  1  0
  5  8  1  0
  8  9  2  0
  8 10  2  0
  8 11  1  0
  4 12  1  0
  4 13  1  0
  3 14  1  0
  3 15  1  0
  2 16  1  0
  2 17  1  0
  1 18  1  0
 18 19  1  0
 19 20  1  0
 20 21  1  0
 20 22  1  0
 20 23  1  0
 19 24  1  0
 19 25  1  0
 18 26  1  0
 18 27  1  0
  1 28  1  0
  1 29  1  0
M  END
$$$$
