
     RDKit          3D

 29 28  0  0  0  0  0  0  0  0999 V2000
  -18.1287  -13.8949   -5.0629 C   0  0  0  0  0  0  0  0  0  0  0  0
  -18.7861  -12.6281   -4.7002 C   0  0  0  0  0  0  0  0  0  0  0  0
  -19.6339  -12.6507   -3.4584 C   0  0  0  0  0  0  0  0  0  0  0  0
  -20.5018  -11.5219   -3.1383 C   0  0  0  0  0  0  0  0  0  0  0  0
  -21.4320  -11.6361   -1.9709 C   0  0  0  0  0  0  0  0  0  0  0  0
  -20.7059  -12.0336   -0.8313 F   0  0  0  0  0  0  0  0  0  0  0  0
  -22.3563  -12.6655   -2.1452 F   0  0  0  0  0  0  0  0  0  0  0  0
  -22.3745  -10.2260   -1.5394 S   0  0  0  0  0  0  0  0  0  0  0  0
  -21.4734   -9.0181   -1.6469 O   0  0  0  0  0  0  0  0  0  0  0  0
  -22.7593  -10.3738   -0.0778 O   0  0  0  0  0  0  0  0  0  0  0  0
  -23.7233  -10.0084   -2.4682 O   0  0  0  0  0  0  0  0  0  0  0  0
  -21.2992  -11.2051   -4.2347 F   0  0  0  0  0  0  0  0  0  0  0  0
  -19.7790  -10.3219   -2.9200 F   0  0  0  0  0  0  0  0  0  0  0  0
  -18.7908  -13.0424   -2.4302 F   0  0  0  0  0  0  0  0  0  0  0  0
  -20.4429  -13.8070   -3.6566 F   0  0  0  0  0  0  0  0  0  0  0  0
  -17.8670  -11.5677   -4.6450 F   0  0  0  0  0  0  0  0  0  0  0  0
  -19.6876  -12.2508   -5.7075 F   0  0  0  0  0  0  0  0  0  0  0  0
  -17.1203  -13.8345   -6.1790 C   0  0  0  0  0  0  0  0  0  0  0  0
  -16.4460  -15.0703   -6.6007 C   0  0  0  0  0  0  0  0  0  0  0  0
  -15.3753  -14.9404   -7.6324 C   0  0  0  0  0  0  0  0  0  0  0  0
  -15.9918  -14.4946   -8.7908 F   0  0  0  0  0  0  0  0  0  0  0  0
  -14.9707  -16.2492   -7.9328 F   0  0  0  0  0  0  0  0  0  0  0  0
  -14.2763  -14.2306   -7.3265 F   0  0  0  0  0  0  0  0  0  0  0  0
  -17.4471  -15.8209   -7.2719 F   0  0  0  0  0  0  0  0  0  0  0  0
  -16.1000  -15.9374   -5.5673 F   0  0  0  0  0  0  0  0  0  0  0  0
  -16.1258  -12.9644   -5.7117 F   0  0  0  0  0  0  0  0  0  0  0  0
  -17.6755  -13.1991   -7.2528 F   0  0  0  0  0  0  0  0  0  0  0  0
  -17.2834  -14.2641   -3.9766 F   0  0  0  0  0  0  0  0  0  0  0  0
  -19.0220  -14.9156   -5.1816 F   0  0  0  0  0  0  0  0  0  0  0  0
  1  2  1  0
  2  3  1  0
  3  4  1  0
  4  5  1  0
  5  6  1  0
  5  7  1  0
  5  8  1  0
  8  9  2  0
  8 10  2  0
  8 11  1  0
  4 12  1  0
  4 13  1  0
  3 14  1  0
  3 15  1  0
  2 16  1  0
  2 17  1  0
  1 18  1  0
 18 19  1  0
 19 20  1  0
 20 21  1  0
 20 22  1  0
 20 23  1  0
 19 24  1  0
 19 25  1  0
 18 26  1  0
 18 27  1  0
  1 28  1  0
  1 29  1  0
M  END
$$$$
