
     RDKit          3D

 29 28  0  0  0  0  0  0  0  0999 V2000
  -16.3639    4.6975    3.2389 C   0  0  0  0  0  0  0  0  0  0  0  0
  -15.5088    4.7731    4.4354 C   0  0  0  0  0  0  0  0  0  0  0  0
  -15.5208    3.5705    5.3383 C   0  0  0  0  0  0  0  0  0  0  0  0
  -15.0785    3.6856    6.7244 C   0  0  0  0  0  0  0  0  0  0  0  0
  -15.1149    2.4690    7.5959 C   0  0  0  0  0  0  0  0  0  0  0  0
  -14.0841    1.5885    7.2133 F   0  0  0  0  0  0  0  0  0  0  0  0
  -16.2749    1.7223    7.3932 F   0  0  0  0  0  0  0  0  0  0  0  0
  -15.0029    2.7033    9.3266 S   0  0  0  0  0  0  0  0  0  0  0  0
  -13.8954    3.6975    9.5870 O   0  0  0  0  0  0  0  0  0  0  0  0
  -14.5721    1.3786    9.9316 O   0  0  0  0  0  0  0  0  0  0  0  0
  -16.4054    3.2244   10.0270 O   0  0  0  0  0  0  0  0  0  0  0  0
  -15.8271    4.6546    7.3868 F   0  0  0  0  0  0  0  0  0  0  0  0
  -13.7552    4.1820    6.8360 F   0  0  0  0  0  0  0  0  0  0  0  0
  -14.9156    2.5509    4.6203 F   0  0  0  0  0  0  0  0  0  0  0  0
  -16.8936    3.1883    5.3271 F   0  0  0  0  0  0  0  0  0  0  0  0
  -14.1895    5.1228    4.1049 F   0  0  0  0  0  0  0  0  0  0  0  0
  -15.9430    5.8152    5.2692 F   0  0  0  0  0  0  0  0  0  0  0  0
  -16.1688    5.7722    2.2031 C   0  0  0  0  0  0  0  0  0  0  0  0
  -17.0653    5.8146    1.0394 C   0  0  0  0  0  0  0  0  0  0  0  0
  -16.7295    6.7891   -0.0402 C   0  0  0  0  0  0  0  0  0  0  0  0
  -17.8270    6.8399   -0.8849 F   0  0  0  0  0  0  0  0  0  0  0  0
  -15.7252    6.1811   -0.8074 F   0  0  0  0  0  0  0  0  0  0  0  0
  -16.2938    8.0097    0.3140 F   0  0  0  0  0  0  0  0  0  0  0  0
  -18.2960    6.3099    1.5453 F   0  0  0  0  0  0  0  0  0  0  0  0
  -17.4524    4.5713    0.5455 F   0  0  0  0  0  0  0  0  0  0  0  0
  -14.8723    5.5620    1.7138 F   0  0  0  0  0  0  0  0  0  0  0  0
  -16.1247    6.9894    2.8208 F   0  0  0  0  0  0  0  0  0  0  0  0
  -15.9582    3.5515    2.4953 F   0  0  0  0  0  0  0  0  0  0  0  0
  -17.6677    4.4705    3.5592 F   0  0  0  0  0  0  0  0  0  0  0  0
  1  2  1  0
  2  3  1  0
  3  4  1  0
  4  5  1  0
  5  6  1  0
  5  7  1  0
  5  8  1  0
  8  9  2  0
  8 10  2  0
  8 11  1  0
  4 12  1  0
  4 13  1  0
  3 14  1  0
  3 15  1  0
  2 16  1  0
  2 17  1  0
  1 18  1  0
 18 19  1  0
 19 20  1  0
 20 21  1  0
 20 22  1  0
 20 23  1  0
 19 24  1  0
 19 25  1  0
 18 26  1  0
 18 27  1  0
  1 28  1  0
  1 29  1  0
M  END
$$$$
