
     RDKit          3D

 25 24  0  0  0  0  0  0  0  0999 V2000
    3.6828    3.2318  -17.2891 C   0  0  0  0  0  0  0  0  0  0  0  0
    3.5047    4.4037  -17.7254 O   0  0  0  0  0  0  0  0  0  0  0  0
    3.0584    2.7941  -16.0134 C   0  0  0  0  0  0  0  0  0  0  0  0
    3.6318    3.6736  -14.9012 C   0  0  0  0  0  0  0  0  0  0  0  0
    2.8929    3.3780  -13.6393 C   0  0  0  0  0  0  0  0  0  0  0  0
    3.2914    4.1237  -12.4262 C   0  0  0  0  0  0  0  0  0  0  0  0
    2.4296    4.0771  -11.2320 C   0  0  0  0  0  0  0  0  0  0  0  0
    2.8401    4.8037  -10.0147 C   0  0  0  0  0  0  0  0  0  0  0  0
    1.8933    4.8209   -8.8696 C   0  0  0  0  0  0  0  0  0  0  0  0
    2.4271    5.4896   -7.7565 F   0  0  0  0  0  0  0  0  0  0  0  0
    0.7514    5.5829   -9.1720 F   0  0  0  0  0  0  0  0  0  0  0  0
    1.4137    3.5977   -8.4840 F   0  0  0  0  0  0  0  0  0  0  0  0
    3.2496    6.1133  -10.2205 F   0  0  0  0  0  0  0  0  0  0  0  0
    4.0054    4.1639   -9.5495 F   0  0  0  0  0  0  0  0  0  0  0  0
    1.2012    4.6794  -11.6288 F   0  0  0  0  0  0  0  0  0  0  0  0
    2.0697    2.7767  -10.8511 F   0  0  0  0  0  0  0  0  0  0  0  0
    4.6157    3.7794  -12.1229 F   0  0  0  0  0  0  0  0  0  0  0  0
    3.4148    5.4746  -12.8365 F   0  0  0  0  0  0  0  0  0  0  0  0
    1.5405    3.3843  -13.9288 F   0  0  0  0  0  0  0  0  0  0  0  0
    3.1620    2.0187  -13.3627 F   0  0  0  0  0  0  0  0  0  0  0  0
    3.6032    4.9554  -15.3425 F   0  0  0  0  0  0  0  0  0  0  0  0
    4.9626    3.2837  -14.7930 F   0  0  0  0  0  0  0  0  0  0  0  0
    3.3195    1.4612  -15.8248 F   0  0  0  0  0  0  0  0  0  0  0  0
    1.6859    2.9319  -16.0694 F   0  0  0  0  0  0  0  0  0  0  0  0
    4.4796    2.4008  -18.0595 O   0  0  0  0  0  0  0  0  0  0  0  0
  1  2  2  0
  1  3  1  0
  3  4  1  0
  4  5  1  0
  5  6  1  0
  6  7  1  0
  7  8  1  0
  8  9  1  0
  9 10  1  0
  9 11  1  0
  9 12  1  0
  8 13  1  0
  8 14  1  0
  7 15  1  0
  7 16  1  0
  6 17  1  0
  6 18  1  0
  5 19  1  0
  5 20  1  0
  4 21  1  0
  4 22  1  0
  3 23  1  0
  3 24  1  0
  1 25  1  0
M  END
$$$$
