
     RDKit          3D

 25 24  0  0  0  0  0  0  0  0999 V2000
    4.7362    4.1477  -17.2618 C   0  0  0  0  0  0  0  0  0  0  0  0
    5.4752    3.1317  -17.3925 O   0  0  0  0  0  0  0  0  0  0  0  0
    4.7053    4.9040  -15.9828 C   0  0  0  0  0  0  0  0  0  0  0  0
    4.2246    3.9407  -14.8963 C   0  0  0  0  0  0  0  0  0  0  0  0
    4.0632    4.7064  -13.6262 C   0  0  0  0  0  0  0  0  0  0  0  0
    3.3656    4.0336  -12.5093 C   0  0  0  0  0  0  0  0  0  0  0  0
    3.2635    4.7124  -11.2056 C   0  0  0  0  0  0  0  0  0  0  0  0
    2.2322    4.2789  -10.2431 C   0  0  0  0  0  0  0  0  0  0  0  0
    2.2288    4.9180   -8.9016 C   0  0  0  0  0  0  0  0  0  0  0  0
    1.9141    6.2845   -8.9712 F   0  0  0  0  0  0  0  0  0  0  0  0
    1.1957    4.4015   -8.1004 F   0  0  0  0  0  0  0  0  0  0  0  0
    3.3705    4.7467   -8.1652 F   0  0  0  0  0  0  0  0  0  0  0  0
    2.1563    2.9088  -10.0384 F   0  0  0  0  0  0  0  0  0  0  0  0
    0.9907    4.5933  -10.8294 F   0  0  0  0  0  0  0  0  0  0  0  0
    4.5068    4.4686  -10.5543 F   0  0  0  0  0  0  0  0  0  0  0  0
    3.1937    6.1091  -11.3051 F   0  0  0  0  0  0  0  0  0  0  0  0
    2.1119    3.6130  -12.9738 F   0  0  0  0  0  0  0  0  0  0  0  0
    4.0482    2.8057  -12.3223 F   0  0  0  0  0  0  0  0  0  0  0  0
    5.2861    5.2721  -13.3143 F   0  0  0  0  0  0  0  0  0  0  0  0
    3.2638    5.8211  -13.9651 F   0  0  0  0  0  0  0  0  0  0  0  0
    5.0838    2.8920  -14.8751 F   0  0  0  0  0  0  0  0  0  0  0  0
    2.9932    3.4809  -15.3516 F   0  0  0  0  0  0  0  0  0  0  0  0
    3.8843    5.9923  -16.1293 F   0  0  0  0  0  0  0  0  0  0  0  0
    5.9609    5.3855  -15.6702 F   0  0  0  0  0  0  0  0  0  0  0  0
    3.9742    4.5024  -18.3629 O   0  0  0  0  0  0  0  0  0  0  0  0
  1  2  2  0
  1  3  1  0
  3  4  1  0
  4  5  1  0
  5  6  1  0
  6  7  1  0
  7  8  1  0
  8  9  1  0
  9 10  1  0
  9 11  1  0
  9 12  1  0
  8 13  1  0
  8 14  1  0
  7 15  1  0
  7 16  1  0
  6 17  1  0
  6 18  1  0
  5 19  1  0
  5 20  1  0
  4 21  1  0
  4 22  1  0
  3 23  1  0
  3 24  1  0
  1 25  1  0
M  END
$$$$
