
     RDKit          3D

 25 24  0  0  0  0  0  0  0  0999 V2000
    3.5292    2.9507  -18.3284 C   0  0  0  0  0  0  0  0  0  0  0  0
    3.7326    4.0648  -18.8879 O   0  0  0  0  0  0  0  0  0  0  0  0
    2.7627    2.8686  -17.0578 C   0  0  0  0  0  0  0  0  0  0  0  0
    3.6625    3.4143  -15.9478 C   0  0  0  0  0  0  0  0  0  0  0  0
    2.8534    3.5287  -14.6996 C   0  0  0  0  0  0  0  0  0  0  0  0
    3.5787    3.8037  -13.4407 C   0  0  0  0  0  0  0  0  0  0  0  0
    2.8339    3.8448  -12.1701 C   0  0  0  0  0  0  0  0  0  0  0  0
    3.5013    4.3540  -10.9563 C   0  0  0  0  0  0  0  0  0  0  0  0
    2.7202    4.3632   -9.6922 C   0  0  0  0  0  0  0  0  0  0  0  0
    3.5278    4.6392   -8.5775 F   0  0  0  0  0  0  0  0  0  0  0  0
    1.7977    5.4237   -9.6781 F   0  0  0  0  0  0  0  0  0  0  0  0
    1.9752    3.2395   -9.4526 F   0  0  0  0  0  0  0  0  0  0  0  0
    4.0783    5.6093  -11.0842 F   0  0  0  0  0  0  0  0  0  0  0  0
    4.6034    3.5069  -10.7293 F   0  0  0  0  0  0  0  0  0  0  0  0
    1.7460    4.7357  -12.3985 F   0  0  0  0  0  0  0  0  0  0  0  0
    2.2205    2.6279  -11.8406 F   0  0  0  0  0  0  0  0  0  0  0  0
    4.6719    2.9292  -13.3721 F   0  0  0  0  0  0  0  0  0  0  0  0
    4.2058    5.0601  -13.6325 F   0  0  0  0  0  0  0  0  0  0  0  0
    1.7794    4.3588  -14.9655 F   0  0  0  0  0  0  0  0  0  0  0  0
    2.2530    2.2609  -14.5303 F   0  0  0  0  0  0  0  0  0  0  0  0
    4.2360    4.5514  -16.4131 F   0  0  0  0  0  0  0  0  0  0  0  0
    4.6605    2.4569  -15.7992 F   0  0  0  0  0  0  0  0  0  0  0  0
    2.3893    1.5662  -16.8470 F   0  0  0  0  0  0  0  0  0  0  0  0
    1.6025    3.6124  -17.1388 F   0  0  0  0  0  0  0  0  0  0  0  0
    4.0552    1.8367  -18.9619 O   0  0  0  0  0  0  0  0  0  0  0  0
  1  2  2  0
  1  3  1  0
  3  4  1  0
  4  5  1  0
  5  6  1  0
  6  7  1  0
  7  8  1  0
  8  9  1  0
  9 10  1  0
  9 11  1  0
  9 12  1  0
  8 13  1  0
  8 14  1  0
  7 15  1  0
  7 16  1  0
  6 17  1  0
  6 18  1  0
  5 19  1  0
  5 20  1  0
  4 21  1  0
  4 22  1  0
  3 23  1  0
  3 24  1  0
  1 25  1  0
M  END
$$$$
