
     RDKit          3D

 25 24  0  0  0  0  0  0  0  0999 V2000
    2.5298    1.9935  -17.6556 C   0  0  0  0  0  0  0  0  0  0  0  0
    3.3325    1.0361  -17.4696 O   0  0  0  0  0  0  0  0  0  0  0  0
    2.6223    3.2310  -16.8378 C   0  0  0  0  0  0  0  0  0  0  0  0
    2.9105    2.8039  -15.3977 C   0  0  0  0  0  0  0  0  0  0  0  0
    3.0642    4.0318  -14.5644 C   0  0  0  0  0  0  0  0  0  0  0  0
    3.3427    3.8468  -13.1240 C   0  0  0  0  0  0  0  0  0  0  0  0
    3.9565    4.9459  -12.3583 C   0  0  0  0  0  0  0  0  0  0  0  0
    4.3492    4.7181  -10.9540 C   0  0  0  0  0  0  0  0  0  0  0  0
    5.0494    5.8212  -10.2462 C   0  0  0  0  0  0  0  0  0  0  0  0
    4.2218    6.9416  -10.0704 F   0  0  0  0  0  0  0  0  0  0  0  0
    5.3607    5.4543   -8.9254 F   0  0  0  0  0  0  0  0  0  0  0  0
    6.2403    6.2120  -10.7977 F   0  0  0  0  0  0  0  0  0  0  0  0
    5.0829    3.5625  -10.7277 F   0  0  0  0  0  0  0  0  0  0  0  0
    3.1541    4.4935  -10.2434 F   0  0  0  0  0  0  0  0  0  0  0  0
    5.1701    5.2494  -13.0399 F   0  0  0  0  0  0  0  0  0  0  0  0
    3.2244    6.1405  -12.4078 F   0  0  0  0  0  0  0  0  0  0  0  0
    2.1697    3.3823  -12.5135 F   0  0  0  0  0  0  0  0  0  0  0  0
    4.1943    2.7168  -13.0458 F   0  0  0  0  0  0  0  0  0  0  0  0
    3.9148    4.8937  -15.2328 F   0  0  0  0  0  0  0  0  0  0  0  0
    1.8138    4.6859  -14.6351 F   0  0  0  0  0  0  0  0  0  0  0  0
    3.9631    1.9498  -15.4310 F   0  0  0  0  0  0  0  0  0  0  0  0
    1.7840    2.0861  -15.0100 F   0  0  0  0  0  0  0  0  0  0  0  0
    1.4509    3.9332  -16.9596 F   0  0  0  0  0  0  0  0  0  0  0  0
    3.6327    4.0489  -17.3029 F   0  0  0  0  0  0  0  0  0  0  0  0
    1.5798    1.8184  -18.6486 O   0  0  0  0  0  0  0  0  0  0  0  0
  1  2  2  0
  1  3  1  0
  3  4  1  0
  4  5  1  0
  5  6  1  0
  6  7  1  0
  7  8  1  0
  8  9  1  0
  9 10  1  0
  9 11  1  0
  9 12  1  0
  8 13  1  0
  8 14  1  0
  7 15  1  0
  7 16  1  0
  6 17  1  0
  6 18  1  0
  5 19  1  0
  5 20  1  0
  4 21  1  0
  4 22  1  0
  3 23  1  0
  3 24  1  0
  1 25  1  0
M  END
$$$$
