
     RDKit          3D

 25 24  0  0  0  0  0  0  0  0999 V2000
    2.6817    2.1040  -17.2790 C   0  0  0  0  0  0  0  0  0  0  0  0
    2.6909    3.0006  -18.1687 O   0  0  0  0  0  0  0  0  0  0  0  0
    2.3742    2.4417  -15.8648 C   0  0  0  0  0  0  0  0  0  0  0  0
    3.3993    3.4829  -15.4125 C   0  0  0  0  0  0  0  0  0  0  0  0
    3.1950    3.7438  -13.9580 C   0  0  0  0  0  0  0  0  0  0  0  0
    4.0857    4.7314  -13.3115 C   0  0  0  0  0  0  0  0  0  0  0  0
    4.1097    4.8318  -11.8418 C   0  0  0  0  0  0  0  0  0  0  0  0
    4.9503    5.8614  -11.2005 C   0  0  0  0  0  0  0  0  0  0  0  0
    5.0179    5.8701   -9.7161 C   0  0  0  0  0  0  0  0  0  0  0  0
    5.7126    4.7576   -9.2152 F   0  0  0  0  0  0  0  0  0  0  0  0
    5.7879    6.9515   -9.2535 F   0  0  0  0  0  0  0  0  0  0  0  0
    3.8149    5.9881   -9.0727 F   0  0  0  0  0  0  0  0  0  0  0  0
    4.6934    7.1647  -11.6012 F   0  0  0  0  0  0  0  0  0  0  0  0
    6.2649    5.6318  -11.6509 F   0  0  0  0  0  0  0  0  0  0  0  0
    2.7743    5.1523  -11.4631 F   0  0  0  0  0  0  0  0  0  0  0  0
    4.3670    3.6116  -11.2009 F   0  0  0  0  0  0  0  0  0  0  0  0
    5.3728    4.5634  -13.8402 F   0  0  0  0  0  0  0  0  0  0  0  0
    3.7018    5.9892  -13.8397 F   0  0  0  0  0  0  0  0  0  0  0  0
    1.8409    3.9306  -13.7472 F   0  0  0  0  0  0  0  0  0  0  0  0
    3.4584    2.5108  -13.3203 F   0  0  0  0  0  0  0  0  0  0  0  0
    3.2925    4.5462  -16.2471 F   0  0  0  0  0  0  0  0  0  0  0  0
    4.6342    2.8823  -15.6343 F   0  0  0  0  0  0  0  0  0  0  0  0
    2.4152    1.2948  -15.1145 F   0  0  0  0  0  0  0  0  0  0  0  0
    1.0963    2.9518  -15.7516 F   0  0  0  0  0  0  0  0  0  0  0  0
    2.9704    0.8156  -17.6981 O   0  0  0  0  0  0  0  0  0  0  0  0
  1  2  2  0
  1  3  1  0
  3  4  1  0
  4  5  1  0
  5  6  1  0
  6  7  1  0
  7  8  1  0
  8  9  1  0
  9 10  1  0
  9 11  1  0
  9 12  1  0
  8 13  1  0
  8 14  1  0
  7 15  1  0
  7 16  1  0
  6 17  1  0
  6 18  1  0
  5 19  1  0
  5 20  1  0
  4 21  1  0
  4 22  1  0
  3 23  1  0
  3 24  1  0
  1 25  1  0
M  END
$$$$
