
     RDKit          3D

 25 24  0  0  0  0  0  0  0  0999 V2000
   -8.4722    6.2546   -5.9460 C   0  0  0  0  0  0  0  0  0  0  0  0
   -9.2810    7.0961   -5.4094 O   0  0  0  0  0  0  0  0  0  0  0  0
   -8.3022    4.9247   -5.3566 C   0  0  0  0  0  0  0  0  0  0  0  0
   -7.8577    4.8457   -3.9482 C   0  0  0  0  0  0  0  0  0  0  0  0
   -7.7909    3.4814   -3.3707 C   0  0  0  0  0  0  0  0  0  0  0  0
   -7.2351    3.5162   -1.9317 C   0  0  0  0  0  0  0  0  0  0  0  0
   -7.1976    2.1335   -1.3248 C   0  0  0  0  0  0  0  0  0  0  0  0
   -6.1821    2.1531   -0.2058 C   0  0  0  0  0  0  0  0  0  0  0  0
   -6.0846    0.8138    0.4892 C   0  0  0  0  0  0  0  0  0  0  0  0
   -5.9419   -0.1992   -0.4356 F   0  0  0  0  0  0  0  0  0  0  0  0
   -5.1198    0.7447    1.4453 F   0  0  0  0  0  0  0  0  0  0  0  0
   -7.3163    0.5834    1.0968 F   0  0  0  0  0  0  0  0  0  0  0  0
   -6.6270    3.0663    0.7290 F   0  0  0  0  0  0  0  0  0  0  0  0
   -4.9902    2.5678   -0.7150 F   0  0  0  0  0  0  0  0  0  0  0  0
   -8.4078    1.7700   -0.8109 F   0  0  0  0  0  0  0  0  0  0  0  0
   -6.7557    1.2245   -2.2516 F   0  0  0  0  0  0  0  0  0  0  0  0
   -5.9600    4.0480   -1.9323 F   0  0  0  0  0  0  0  0  0  0  0  0
   -8.0295    4.3574   -1.1768 F   0  0  0  0  0  0  0  0  0  0  0  0
   -6.9088    2.7112   -4.1295 F   0  0  0  0  0  0  0  0  0  0  0  0
   -9.0551    2.9418   -3.3194 F   0  0  0  0  0  0  0  0  0  0  0  0
   -8.6815    5.6887   -3.1877 F   0  0  0  0  0  0  0  0  0  0  0  0
   -6.6037    5.4735   -3.8833 F   0  0  0  0  0  0  0  0  0  0  0  0
   -7.4592    4.1725   -6.1996 F   0  0  0  0  0  0  0  0  0  0  0  0
   -9.5476    4.2681   -5.4431 F   0  0  0  0  0  0  0  0  0  0  0  0
   -7.8254    6.7267   -7.0785 O   0  0  0  0  0  0  0  0  0  0  0  0
  1  2  2  0
  1  3  1  0
  3  4  1  0
  4  5  1  0
  5  6  1  0
  6  7  1  0
  7  8  1  0
  8  9  1  0
  9 10  1  0
  9 11  1  0
  9 12  1  0
  8 13  1  0
  8 14  1  0
  7 15  1  0
  7 16  1  0
  6 17  1  0
  6 18  1  0
  5 19  1  0
  5 20  1  0
  4 21  1  0
  4 22  1  0
  3 23  1  0
  3 24  1  0
  1 25  1  0
M  END
$$$$
