
     RDKit          3D

 25 24  0  0  0  0  0  0  0  0999 V2000
   -4.7306    6.2126  -13.1335 C   0  0  0  0  0  0  0  0  0  0  0  0
   -3.6917    6.4218  -13.8595 O   0  0  0  0  0  0  0  0  0  0  0  0
   -4.9643    4.8879  -12.5542 C   0  0  0  0  0  0  0  0  0  0  0  0
   -4.7929    4.7336  -11.0932 C   0  0  0  0  0  0  0  0  0  0  0  0
   -5.0464    3.3747  -10.5562 C   0  0  0  0  0  0  0  0  0  0  0  0
   -4.5710    3.2604   -9.0928 C   0  0  0  0  0  0  0  0  0  0  0  0
   -5.0309    1.9651   -8.4665 C   0  0  0  0  0  0  0  0  0  0  0  0
   -4.4302    1.8886   -7.0819 C   0  0  0  0  0  0  0  0  0  0  0  0
   -5.1347    0.8665   -6.2185 C   0  0  0  0  0  0  0  0  0  0  0  0
   -5.0390   -0.3882   -6.7827 F   0  0  0  0  0  0  0  0  0  0  0  0
   -4.7309    0.8524   -4.9198 F   0  0  0  0  0  0  0  0  0  0  0  0
   -6.4915    1.1786   -6.2488 F   0  0  0  0  0  0  0  0  0  0  0  0
   -4.6181    3.1215   -6.4900 F   0  0  0  0  0  0  0  0  0  0  0  0
   -3.0976    1.6418   -7.2053 F   0  0  0  0  0  0  0  0  0  0  0  0
   -6.3895    1.9063   -8.3577 F   0  0  0  0  0  0  0  0  0  0  0  0
   -4.5406    0.8989   -9.1760 F   0  0  0  0  0  0  0  0  0  0  0  0
   -3.1921    3.3277   -9.0391 F   0  0  0  0  0  0  0  0  0  0  0  0
   -5.0618    4.3426   -8.3883 F   0  0  0  0  0  0  0  0  0  0  0  0
   -4.3094    2.4502  -11.2974 F   0  0  0  0  0  0  0  0  0  0  0  0
   -6.3971    3.1158  -10.5802 F   0  0  0  0  0  0  0  0  0  0  0  0
   -5.5932    5.6965  -10.4608 F   0  0  0  0  0  0  0  0  0  0  0  0
   -3.4863    5.1498  -10.7924 F   0  0  0  0  0  0  0  0  0  0  0  0
   -4.1811    3.9527  -13.2604 F   0  0  0  0  0  0  0  0  0  0  0  0
   -6.2921    4.5261  -12.8634 F   0  0  0  0  0  0  0  0  0  0  0  0
   -5.5478    7.3218  -12.9728 O   0  0  0  0  0  0  0  0  0  0  0  0
  1  2  2  0
  1  3  1  0
  3  4  1  0
  4  5  1  0
  5  6  1  0
  6  7  1  0
  7  8  1  0
  8  9  1  0
  9 10  1  0
  9 11  1  0
  9 12  1  0
  8 13  1  0
  8 14  1  0
  7 15  1  0
  7 16  1  0
  6 17  1  0
  6 18  1  0
  5 19  1  0
  5 20  1  0
  4 21  1  0
  4 22  1  0
  3 23  1  0
  3 24  1  0
  1 25  1  0
M  END
$$$$
