
     RDKit          3D

 25 24  0  0  0  0  0  0  0  0999 V2000
   -4.3588   -0.4862   -8.0899 C   0  0  0  0  0  0  0  0  0  0  0  0
   -4.7090    0.6533   -7.6115 O   0  0  0  0  0  0  0  0  0  0  0  0
   -4.4833   -1.6937   -7.2705 C   0  0  0  0  0  0  0  0  0  0  0  0
   -4.8827   -1.5296   -5.8559 C   0  0  0  0  0  0  0  0  0  0  0  0
   -5.0420   -2.7853   -5.0831 C   0  0  0  0  0  0  0  0  0  0  0  0
   -5.5656   -2.4969   -3.6605 C   0  0  0  0  0  0  0  0  0  0  0  0
   -5.6554   -3.7633   -2.8422 C   0  0  0  0  0  0  0  0  0  0  0  0
   -6.2743   -3.4041   -1.5111 C   0  0  0  0  0  0  0  0  0  0  0  0
   -6.6058   -4.6329   -0.6947 C   0  0  0  0  0  0  0  0  0  0  0  0
   -7.6398   -5.3343   -1.2785 F   0  0  0  0  0  0  0  0  0  0  0  0
   -5.5439   -5.4443   -0.4420 F   0  0  0  0  0  0  0  0  0  0  0  0
   -7.1102   -4.1845    0.5235 F   0  0  0  0  0  0  0  0  0  0  0  0
   -7.4650   -2.7589   -1.7789 F   0  0  0  0  0  0  0  0  0  0  0  0
   -5.4327   -2.5544   -0.8618 F   0  0  0  0  0  0  0  0  0  0  0  0
   -6.4345   -4.7060   -3.4466 F   0  0  0  0  0  0  0  0  0  0  0  0
   -4.3984   -4.2464   -2.5829 F   0  0  0  0  0  0  0  0  0  0  0  0
   -4.7284   -1.6014   -3.0234 F   0  0  0  0  0  0  0  0  0  0  0  0
   -6.8051   -1.8960   -3.7648 F   0  0  0  0  0  0  0  0  0  0  0  0
   -3.7933   -3.3919   -4.9424 F   0  0  0  0  0  0  0  0  0  0  0  0
   -5.9575   -3.5979   -5.7105 F   0  0  0  0  0  0  0  0  0  0  0  0
   -6.0497   -0.7521   -5.8243 F   0  0  0  0  0  0  0  0  0  0  0  0
   -3.9229   -0.6978   -5.2578 F   0  0  0  0  0  0  0  0  0  0  0  0
   -3.2844   -2.4270   -7.3794 F   0  0  0  0  0  0  0  0  0  0  0  0
   -5.4469   -2.5186   -7.8876 F   0  0  0  0  0  0  0  0  0  0  0  0
   -3.8834   -0.4372   -9.3920 O   0  0  0  0  0  0  0  0  0  0  0  0
  1  2  2  0
  1  3  1  0
  3  4  1  0
  4  5  1  0
  5  6  1  0
  6  7  1  0
  7  8  1  0
  8  9  1  0
  9 10  1  0
  9 11  1  0
  9 12  1  0
  8 13  1  0
  8 14  1  0
  7 15  1  0
  7 16  1  0
  6 17  1  0
  6 18  1  0
  5 19  1  0
  5 20  1  0
  4 21  1  0
  4 22  1  0
  3 23  1  0
  3 24  1  0
  1 25  1  0
M  END
$$$$
