
     RDKit          3D

 25 24  0  0  0  0  0  0  0  0999 V2000
   -8.3306    6.5862   -6.1212 C   0  0  0  0  0  0  0  0  0  0  0  0
   -7.7509    7.5543   -5.5072 O   0  0  0  0  0  0  0  0  0  0  0  0
   -8.4008    5.2622   -5.4991 C   0  0  0  0  0  0  0  0  0  0  0  0
   -7.7544    5.0840   -4.1808 C   0  0  0  0  0  0  0  0  0  0  0  0
   -7.8344    3.7198   -3.6048 C   0  0  0  0  0  0  0  0  0  0  0  0
   -7.2925    3.6964   -2.1603 C   0  0  0  0  0  0  0  0  0  0  0  0
   -7.2454    2.2885   -1.6151 C   0  0  0  0  0  0  0  0  0  0  0  0
   -6.3213    2.2923   -0.4193 C   0  0  0  0  0  0  0  0  0  0  0  0
   -6.2504    0.9341    0.2415 C   0  0  0  0  0  0  0  0  0  0  0  0
   -5.2990    0.9336    1.2399 F   0  0  0  0  0  0  0  0  0  0  0  0
   -7.4431    0.4683    0.7001 F   0  0  0  0  0  0  0  0  0  0  0  0
   -5.7749    0.0429   -0.7171 F   0  0  0  0  0  0  0  0  0  0  0  0
   -6.8570    3.1677    0.5039 F   0  0  0  0  0  0  0  0  0  0  0  0
   -5.1021    2.7446   -0.8206 F   0  0  0  0  0  0  0  0  0  0  0  0
   -8.4759    1.8558   -1.2155 F   0  0  0  0  0  0  0  0  0  0  0  0
   -6.6962    1.4421   -2.5439 F   0  0  0  0  0  0  0  0  0  0  0  0
   -6.0232    4.2411   -2.1248 F   0  0  0  0  0  0  0  0  0  0  0  0
   -8.1030    4.4947   -1.3766 F   0  0  0  0  0  0  0  0  0  0  0  0
   -7.0289    2.8631   -4.3560 F   0  0  0  0  0  0  0  0  0  0  0  0
   -9.1480    3.3134   -3.5668 F   0  0  0  0  0  0  0  0  0  0  0  0
   -8.2834    6.0454   -3.3072 F   0  0  0  0  0  0  0  0  0  0  0  0
   -6.4162    5.4820   -4.3287 F   0  0  0  0  0  0  0  0  0  0  0  0
   -7.9322    4.3120   -6.4288 F   0  0  0  0  0  0  0  0  0  0  0  0
   -9.7668    4.9461   -5.3449 F   0  0  0  0  0  0  0  0  0  0  0  0
   -8.8505    6.9264   -7.3613 O   0  0  0  0  0  0  0  0  0  0  0  0
  1  2  2  0
  1  3  1  0
  3  4  1  0
  4  5  1  0
  5  6  1  0
  6  7  1  0
  7  8  1  0
  8  9  1  0
  9 10  1  0
  9 11  1  0
  9 12  1  0
  8 13  1  0
  8 14  1  0
  7 15  1  0
  7 16  1  0
  6 17  1  0
  6 18  1  0
  5 19  1  0
  5 20  1  0
  4 21  1  0
  4 22  1  0
  3 23  1  0
  3 24  1  0
  1 25  1  0
M  END
$$$$
