
     RDKit          3D

 25 24  0  0  0  0  0  0  0  0999 V2000
   -7.5957    3.2005   -3.9371 C   0  0  0  0  0  0  0  0  0  0  0  0
   -6.7210    2.7317   -4.7527 O   0  0  0  0  0  0  0  0  0  0  0  0
   -7.4053    3.0494   -2.4929 C   0  0  0  0  0  0  0  0  0  0  0  0
   -6.5577    1.9326   -2.0217 C   0  0  0  0  0  0  0  0  0  0  0  0
   -6.4591    1.7769   -0.5502 C   0  0  0  0  0  0  0  0  0  0  0  0
   -5.9561    0.3672   -0.1754 C   0  0  0  0  0  0  0  0  0  0  0  0
   -6.2768    0.0350    1.2627 C   0  0  0  0  0  0  0  0  0  0  0  0
   -6.2322   -1.4688    1.4052 C   0  0  0  0  0  0  0  0  0  0  0  0
   -6.2025   -1.8962    2.8553 C   0  0  0  0  0  0  0  0  0  0  0  0
   -5.0615   -1.4276    3.4720 F   0  0  0  0  0  0  0  0  0  0  0  0
   -7.3149   -1.5628    3.5633 F   0  0  0  0  0  0  0  0  0  0  0  0
   -6.0801   -3.2834    2.8651 F   0  0  0  0  0  0  0  0  0  0  0  0
   -5.0520   -1.8954    0.8300 F   0  0  0  0  0  0  0  0  0  0  0  0
   -7.2863   -1.9958    0.7246 F   0  0  0  0  0  0  0  0  0  0  0  0
   -5.3734    0.5831    2.1255 F   0  0  0  0  0  0  0  0  0  0  0  0
   -7.5557    0.4287    1.5629 F   0  0  0  0  0  0  0  0  0  0  0  0
   -6.5381   -0.5753   -1.0011 F   0  0  0  0  0  0  0  0  0  0  0  0
   -4.5930    0.3174   -0.3940 F   0  0  0  0  0  0  0  0  0  0  0  0
   -7.7311    1.9168    0.0061 F   0  0  0  0  0  0  0  0  0  0  0  0
   -5.5597    2.6900   -0.0508 F   0  0  0  0  0  0  0  0  0  0  0  0
   -5.2930    2.0717   -2.6123 F   0  0  0  0  0  0  0  0  0  0  0  0
   -7.0638    0.7633   -2.6112 F   0  0  0  0  0  0  0  0  0  0  0  0
   -8.6746    3.0188   -1.8808 F   0  0  0  0  0  0  0  0  0  0  0  0
   -6.8262    4.2461   -2.0214 F   0  0  0  0  0  0  0  0  0  0  0  0
   -8.6695    3.8288   -4.5505 O   0  0  0  0  0  0  0  0  0  0  0  0
  1  2  2  0
  1  3  1  0
  3  4  1  0
  4  5  1  0
  5  6  1  0
  6  7  1  0
  7  8  1  0
  8  9  1  0
  9 10  1  0
  9 11  1  0
  9 12  1  0
  8 13  1  0
  8 14  1  0
  7 15  1  0
  7 16  1  0
  6 17  1  0
  6 18  1  0
  5 19  1  0
  5 20  1  0
  4 21  1  0
  4 22  1  0
  3 23  1  0
  3 24  1  0
  1 25  1  0
M  END
$$$$
