
     RDKit          3D

 25 24  0  0  0  0  0  0  0  0999 V2000
   -8.2619    6.2873   -5.9059 C   0  0  0  0  0  0  0  0  0  0  0  0
   -7.3752    7.1364   -5.5278 O   0  0  0  0  0  0  0  0  0  0  0  0
   -8.5160    5.0882   -5.1044 C   0  0  0  0  0  0  0  0  0  0  0  0
   -7.6634    4.8577   -3.9180 C   0  0  0  0  0  0  0  0  0  0  0  0
   -7.8728    3.5679   -3.2166 C   0  0  0  0  0  0  0  0  0  0  0  0
   -7.0588    3.5116   -1.9070 C   0  0  0  0  0  0  0  0  0  0  0  0
   -6.9503    2.0968   -1.3894 C   0  0  0  0  0  0  0  0  0  0  0  0
   -6.1431    2.1382   -0.1124 C   0  0  0  0  0  0  0  0  0  0  0  0
   -6.0946    0.7881    0.5668 C   0  0  0  0  0  0  0  0  0  0  0  0
   -6.6615   -0.1768   -0.2391 F   0  0  0  0  0  0  0  0  0  0  0  0
   -4.8561    0.4124    0.9849 F   0  0  0  0  0  0  0  0  0  0  0  0
   -6.9248    0.8670    1.6821 F   0  0  0  0  0  0  0  0  0  0  0  0
   -6.7887    3.0042    0.7471 F   0  0  0  0  0  0  0  0  0  0  0  0
   -4.9055    2.6240   -0.4027 F   0  0  0  0  0  0  0  0  0  0  0  0
   -8.1740    1.5594   -1.1159 F   0  0  0  0  0  0  0  0  0  0  0  0
   -6.2527    1.3217   -2.2800 F   0  0  0  0  0  0  0  0  0  0  0  0
   -5.7907    4.0174   -2.1189 F   0  0  0  0  0  0  0  0  0  0  0  0
   -7.6738    4.3249   -0.9751 F   0  0  0  0  0  0  0  0  0  0  0  0
   -7.4112    2.5310   -4.0282 F   0  0  0  0  0  0  0  0  0  0  0  0
   -9.2023    3.4329   -2.8905 F   0  0  0  0  0  0  0  0  0  0  0  0
   -7.8251    5.9490   -3.0517 F   0  0  0  0  0  0  0  0  0  0  0  0
   -6.3319    4.9786   -4.3464 F   0  0  0  0  0  0  0  0  0  0  0  0
   -8.5046    3.9714   -5.9644 F   0  0  0  0  0  0  0  0  0  0  0  0
   -9.8513    5.1619   -4.6559 F   0  0  0  0  0  0  0  0  0  0  0  0
   -8.9087    6.6242   -7.0857 O   0  0  0  0  0  0  0  0  0  0  0  0
  1  2  2  0
  1  3  1  0
  3  4  1  0
  4  5  1  0
  5  6  1  0
  6  7  1  0
  7  8  1  0
  8  9  1  0
  9 10  1  0
  9 11  1  0
  9 12  1  0
  8 13  1  0
  8 14  1  0
  7 15  1  0
  7 16  1  0
  6 17  1  0
  6 18  1  0
  5 19  1  0
  5 20  1  0
  4 21  1  0
  4 22  1  0
  3 23  1  0
  3 24  1  0
  1 25  1  0
M  END
$$$$
