
     RDKit          3D

 25 24  0  0  0  0  0  0  0  0999 V2000
   -0.7483   -6.7447  -14.3686 C   0  0  0  0  0  0  0  0  0  0  0  0
   -1.7513   -6.1784  -14.8447 O   0  0  0  0  0  0  0  0  0  0  0  0
   -0.8177   -7.5046  -13.0498 C   0  0  0  0  0  0  0  0  0  0  0  0
   -0.8797   -6.4947  -11.9731 C   0  0  0  0  0  0  0  0  0  0  0  0
   -1.0793   -6.9668  -10.5634 C   0  0  0  0  0  0  0  0  0  0  0  0
   -1.1417   -5.9356   -9.5217 C   0  0  0  0  0  0  0  0  0  0  0  0
   -1.2163   -6.3782   -8.0894 C   0  0  0  0  0  0  0  0  0  0  0  0
   -1.0980   -5.3519   -7.0373 C   0  0  0  0  0  0  0  0  0  0  0  0
   -1.1903   -5.9776   -5.6233 C   0  0  0  0  0  0  0  0  0  0  0  0
   -2.4468   -6.5145   -5.4841 F   0  0  0  0  0  0  0  0  0  0  0  0
   -0.9971   -5.0385   -4.6543 F   0  0  0  0  0  0  0  0  0  0  0  0
   -0.2091   -6.9410   -5.5091 F   0  0  0  0  0  0  0  0  0  0  0  0
    0.2203   -4.8578   -7.0258 F   0  0  0  0  0  0  0  0  0  0  0  0
   -2.0360   -4.3664   -7.0785 F   0  0  0  0  0  0  0  0  0  0  0  0
   -0.3350   -7.4343   -7.9417 F   0  0  0  0  0  0  0  0  0  0  0  0
   -2.4831   -6.9684   -7.9427 F   0  0  0  0  0  0  0  0  0  0  0  0
    0.0131   -5.1180   -9.5633 F   0  0  0  0  0  0  0  0  0  0  0  0
   -2.2314   -5.1131   -9.7402 F   0  0  0  0  0  0  0  0  0  0  0  0
   -2.1556   -7.8245  -10.5933 F   0  0  0  0  0  0  0  0  0  0  0  0
    0.0560   -7.7839  -10.3339 F   0  0  0  0  0  0  0  0  0  0  0  0
    0.2850   -5.7095  -12.0164 F   0  0  0  0  0  0  0  0  0  0  0  0
   -1.9800   -5.6694  -12.2796 F   0  0  0  0  0  0  0  0  0  0  0  0
    0.3262   -8.2820  -13.0783 F   0  0  0  0  0  0  0  0  0  0  0  0
   -1.9052   -8.3483  -13.0552 F   0  0  0  0  0  0  0  0  0  0  0  0
    0.4711   -6.7062  -15.0195 O   0  0  0  0  0  0  0  0  0  0  0  0
  1  2  2  0
  1  3  1  0
  3  4  1  0
  4  5  1  0
  5  6  1  0
  6  7  1  0
  7  8  1  0
  8  9  1  0
  9 10  1  0
  9 11  1  0
  9 12  1  0
  8 13  1  0
  8 14  1  0
  7 15  1  0
  7 16  1  0
  6 17  1  0
  6 18  1  0
  5 19  1  0
  5 20  1  0
  4 21  1  0
  4 22  1  0
  3 23  1  0
  3 24  1  0
  1 25  1  0
M  END
$$$$
