
     RDKit          3D

 29 28  0  0  0  0  0  0  0  0999 V2000
   -1.5288    0.1853   -6.8895 C   0  0  0  0  0  0  0  0  0  0  0  0
   -3.0772    0.3360   -6.8396 C   0  0  0  0  0  0  0  0  0  0  0  0
   -3.7248   -0.6224   -7.7721 C   0  0  0  0  0  0  0  0  0  0  0  0
   -5.0858   -0.3400   -8.2524 C   0  0  0  0  0  0  0  0  0  0  0  0
   -5.6744   -1.2694   -9.2500 C   0  0  0  0  0  0  0  0  0  0  0  0
   -4.8462   -1.4999  -10.3531 F   0  0  0  0  0  0  0  0  0  0  0  0
   -5.7684   -2.5637   -8.6599 F   0  0  0  0  0  0  0  0  0  0  0  0
   -7.2730   -0.7737   -9.7656 S   0  0  0  0  0  0  0  0  0  0  0  0
   -7.1954    0.6294  -10.3737 O   0  0  0  0  0  0  0  0  0  0  0  0
   -8.3040   -0.7776   -8.7060 O   0  0  0  0  0  0  0  0  0  0  0  0
   -7.7719   -1.7991  -11.0177 O   0  0  0  0  0  0  0  0  0  0  0  0
   -6.0094   -0.2524   -7.1960 F   0  0  0  0  0  0  0  0  0  0  0  0
   -5.1354    0.9798   -8.7820 F   0  0  0  0  0  0  0  0  0  0  0  0
   -2.9265   -0.7136   -8.9670 F   0  0  0  0  0  0  0  0  0  0  0  0
   -3.6212   -1.9083   -7.2785 F   0  0  0  0  0  0  0  0  0  0  0  0
   -3.3549    0.0139   -5.5167 F   0  0  0  0  0  0  0  0  0  0  0  0
   -3.4487    1.6473   -7.0082 F   0  0  0  0  0  0  0  0  0  0  0  0
   -1.0117    1.4618   -6.3519 C   0  0  0  0  0  0  0  0  0  0  0  0
    0.4316    1.7413   -6.3729 C   0  0  0  0  0  0  0  0  0  0  0  0
    0.8352    2.9580   -5.6085 C   0  0  0  0  0  0  0  0  0  0  0  0
    1.2665    2.5885   -4.3395 F   0  0  0  0  0  0  0  0  0  0  0  0
    1.9726    3.4701   -6.3060 F   0  0  0  0  0  0  0  0  0  0  0  0
   -0.0916    3.9428   -5.4893 F   0  0  0  0  0  0  0  0  0  0  0  0
    0.8860    1.7793   -7.6854 F   0  0  0  0  0  0  0  0  0  0  0  0
    1.0605    0.6192   -5.7944 F   0  0  0  0  0  0  0  0  0  0  0  0
   -1.4256    1.4958   -4.9995 F   0  0  0  0  0  0  0  0  0  0  0  0
   -1.7540    2.4939   -6.9516 F   0  0  0  0  0  0  0  0  0  0  0  0
   -1.1443   -0.8550   -6.0737 F   0  0  0  0  0  0  0  0  0  0  0  0
   -1.1425   -0.0948   -8.1626 F   0  0  0  0  0  0  0  0  0  0  0  0
  1  2  1  0
  2  3  1  0
  3  4  1  0
  4  5  1  0
  5  6  1  0
  5  7  1  0
  5  8  1  0
  8  9  2  0
  8 10  2  0
  8 11  1  0
  4 12  1  0
  4 13  1  0
  3 14  1  0
  3 15  1  0
  2 16  1  0
  2 17  1  0
  1 18  1  0
 18 19  1  0
 19 20  1  0
 20 21  1  0
 20 22  1  0
 20 23  1  0
 19 24  1  0
 19 25  1  0
 18 26  1  0
 18 27  1  0
  1 28  1  0
  1 29  1  0
M  END
$$$$
