
     RDKit          3D

 29 28  0  0  0  0  0  0  0  0999 V2000
   -0.5184    2.2039   -7.5632 C   0  0  0  0  0  0  0  0  0  0  0  0
   -1.7645    1.4050   -7.0815 C   0  0  0  0  0  0  0  0  0  0  0  0
   -2.5144    0.8589   -8.2420 C   0  0  0  0  0  0  0  0  0  0  0  0
   -3.6391   -0.0563   -7.9966 C   0  0  0  0  0  0  0  0  0  0  0  0
   -4.4640   -0.4669   -9.1613 C   0  0  0  0  0  0  0  0  0  0  0  0
   -5.0542    0.6086   -9.8327 F   0  0  0  0  0  0  0  0  0  0  0  0
   -3.6004   -1.0135  -10.1552 F   0  0  0  0  0  0  0  0  0  0  0  0
   -5.6638   -1.6714   -8.7408 S   0  0  0  0  0  0  0  0  0  0  0  0
   -6.5070   -1.1576   -7.5706 O   0  0  0  0  0  0  0  0  0  0  0  0
   -5.1223   -3.0017   -8.3904 O   0  0  0  0  0  0  0  0  0  0  0  0
   -6.7296   -1.8414  -10.0459 O   0  0  0  0  0  0  0  0  0  0  0  0
   -3.2251   -1.2417   -7.3640 F   0  0  0  0  0  0  0  0  0  0  0  0
   -4.4986    0.5051   -7.0113 F   0  0  0  0  0  0  0  0  0  0  0  0
   -3.0887    1.9557   -8.9771 F   0  0  0  0  0  0  0  0  0  0  0  0
   -1.6358    0.3396   -9.1728 F   0  0  0  0  0  0  0  0  0  0  0  0
   -1.1826    0.3868   -6.3362 F   0  0  0  0  0  0  0  0  0  0  0  0
   -2.5163    2.1491   -6.2057 F   0  0  0  0  0  0  0  0  0  0  0  0
    0.1972    2.5648   -6.3209 C   0  0  0  0  0  0  0  0  0  0  0  0
    1.5888    3.0354   -6.3804 C   0  0  0  0  0  0  0  0  0  0  0  0
    2.2490    3.1777   -5.0494 C   0  0  0  0  0  0  0  0  0  0  0  0
    3.5950    3.4772   -5.2272 F   0  0  0  0  0  0  0  0  0  0  0  0
    1.6381    4.3258   -4.4568 F   0  0  0  0  0  0  0  0  0  0  0  0
    2.1405    2.1279   -4.1956 F   0  0  0  0  0  0  0  0  0  0  0  0
    1.6591    4.2084   -7.1219 F   0  0  0  0  0  0  0  0  0  0  0  0
    2.2989    2.0770   -7.1329 F   0  0  0  0  0  0  0  0  0  0  0  0
    0.1839    1.3950   -5.5254 F   0  0  0  0  0  0  0  0  0  0  0  0
   -0.6275    3.4562   -5.6129 F   0  0  0  0  0  0  0  0  0  0  0  0
    0.2749    1.3889   -8.3392 F   0  0  0  0  0  0  0  0  0  0  0  0
   -0.9225    3.2616   -8.3157 F   0  0  0  0  0  0  0  0  0  0  0  0
  1  2  1  0
  2  3  1  0
  3  4  1  0
  4  5  1  0
  5  6  1  0
  5  7  1  0
  5  8  1  0
  8  9  2  0
  8 10  2  0
  8 11  1  0
  4 12  1  0
  4 13  1  0
  3 14  1  0
  3 15  1  0
  2 16  1  0
  2 17  1  0
  1 18  1  0
 18 19  1  0
 19 20  1  0
 20 21  1  0
 20 22  1  0
 20 23  1  0
 19 24  1  0
 19 25  1  0
 18 26  1  0
 18 27  1  0
  1 28  1  0
  1 29  1  0
M  END
$$$$
