
     RDKit          3D

 29 28  0  0  0  0  0  0  0  0999 V2000
   -3.9887   -0.4528   -7.4474 C   0  0  0  0  0  0  0  0  0  0  0  0
   -4.1324   -1.1409   -8.8363 C   0  0  0  0  0  0  0  0  0  0  0  0
   -5.5639   -1.3810   -9.1536 C   0  0  0  0  0  0  0  0  0  0  0  0
   -5.9426   -1.7024  -10.5378 C   0  0  0  0  0  0  0  0  0  0  0  0
   -7.3888   -1.8436  -10.8447 C   0  0  0  0  0  0  0  0  0  0  0  0
   -8.0146   -2.8639  -10.1214 F   0  0  0  0  0  0  0  0  0  0  0  0
   -8.0644   -0.6777  -10.3795 F   0  0  0  0  0  0  0  0  0  0  0  0
   -7.6954   -2.0192  -12.5600 S   0  0  0  0  0  0  0  0  0  0  0  0
   -9.1890   -2.2717  -12.7831 O   0  0  0  0  0  0  0  0  0  0  0  0
   -6.9258   -3.0895  -13.2292 O   0  0  0  0  0  0  0  0  0  0  0  0
   -7.3523   -0.5438  -13.3173 O   0  0  0  0  0  0  0  0  0  0  0  0
   -5.4303   -0.7675  -11.4545 F   0  0  0  0  0  0  0  0  0  0  0  0
   -5.2772   -2.8923  -10.9454 F   0  0  0  0  0  0  0  0  0  0  0  0
   -6.0261   -2.5025   -8.3779 F   0  0  0  0  0  0  0  0  0  0  0  0
   -6.3410   -0.3597   -8.6427 F   0  0  0  0  0  0  0  0  0  0  0  0
   -3.5830   -0.1892   -9.6868 F   0  0  0  0  0  0  0  0  0  0  0  0
   -3.3277   -2.2505   -8.9202 F   0  0  0  0  0  0  0  0  0  0  0  0
   -2.7323    0.3207   -7.5420 C   0  0  0  0  0  0  0  0  0  0  0  0
   -2.4869    1.4454   -6.6274 C   0  0  0  0  0  0  0  0  0  0  0  0
   -1.2544    2.2301   -6.9320 C   0  0  0  0  0  0  0  0  0  0  0  0
   -0.2191    1.3619   -7.2595 F   0  0  0  0  0  0  0  0  0  0  0  0
   -1.5718    2.9696   -8.1131 F   0  0  0  0  0  0  0  0  0  0  0  0
   -0.8221    3.0894   -5.9741 F   0  0  0  0  0  0  0  0  0  0  0  0
   -2.5041    0.9970   -5.3125 F   0  0  0  0  0  0  0  0  0  0  0  0
   -3.6028    2.3003   -6.7431 F   0  0  0  0  0  0  0  0  0  0  0  0
   -2.7067    0.8377   -8.8586 F   0  0  0  0  0  0  0  0  0  0  0  0
   -1.6748   -0.6054   -7.5291 F   0  0  0  0  0  0  0  0  0  0  0  0
   -5.0496    0.4021   -7.2490 F   0  0  0  0  0  0  0  0  0  0  0  0
   -4.0036   -1.3982   -6.4707 F   0  0  0  0  0  0  0  0  0  0  0  0
  1  2  1  0
  2  3  1  0
  3  4  1  0
  4  5  1  0
  5  6  1  0
  5  7  1  0
  5  8  1  0
  8  9  2  0
  8 10  2  0
  8 11  1  0
  4 12  1  0
  4 13  1  0
  3 14  1  0
  3 15  1  0
  2 16  1  0
  2 17  1  0
  1 18  1  0
 18 19  1  0
 19 20  1  0
 20 21  1  0
 20 22  1  0
 20 23  1  0
 19 24  1  0
 19 25  1  0
 18 26  1  0
 18 27  1  0
  1 28  1  0
  1 29  1  0
M  END
$$$$
