
     RDKit          3D

 29 28  0  0  0  0  0  0  0  0999 V2000
   -5.7334   -4.9134  -10.6083 C   0  0  0  0  0  0  0  0  0  0  0  0
   -6.5819   -4.0761  -11.6094 C   0  0  0  0  0  0  0  0  0  0  0  0
   -7.9089   -4.7087  -11.8245 C   0  0  0  0  0  0  0  0  0  0  0  0
   -9.0204   -3.8823  -12.3188 C   0  0  0  0  0  0  0  0  0  0  0  0
  -10.3314   -4.5449  -12.5377 C   0  0  0  0  0  0  0  0  0  0  0  0
  -10.2290   -5.7849  -13.1763 F   0  0  0  0  0  0  0  0  0  0  0  0
  -10.8764   -4.8967  -11.2683 F   0  0  0  0  0  0  0  0  0  0  0  0
  -11.4743   -3.5102  -13.3685 S   0  0  0  0  0  0  0  0  0  0  0  0
  -11.5821   -2.1764  -12.6241 O   0  0  0  0  0  0  0  0  0  0  0  0
  -12.8303   -4.0760  -13.5317 O   0  0  0  0  0  0  0  0  0  0  0  0
  -10.8474   -3.1426  -14.8982 O   0  0  0  0  0  0  0  0  0  0  0  0
   -9.2668   -2.7777  -11.4846 F   0  0  0  0  0  0  0  0  0  0  0  0
   -8.6314   -3.2422  -13.5287 F   0  0  0  0  0  0  0  0  0  0  0  0
   -7.7673   -5.7552  -12.8034 F   0  0  0  0  0  0  0  0  0  0  0  0
   -8.2767   -5.4318  -10.7065 F   0  0  0  0  0  0  0  0  0  0  0  0
   -6.7062   -2.8656  -10.9385 F   0  0  0  0  0  0  0  0  0  0  0  0
   -5.8728   -3.8158  -12.7562 F   0  0  0  0  0  0  0  0  0  0  0  0
   -4.4545   -4.1798  -10.4980 C   0  0  0  0  0  0  0  0  0  0  0  0
   -3.4518   -4.5893   -9.5036 C   0  0  0  0  0  0  0  0  0  0  0  0
   -2.1506   -3.8655   -9.6061 C   0  0  0  0  0  0  0  0  0  0  0  0
   -1.5415   -4.1725  -10.8176 F   0  0  0  0  0  0  0  0  0  0  0  0
   -2.5025   -2.4811   -9.6521 F   0  0  0  0  0  0  0  0  0  0  0  0
   -1.2583   -4.0626   -8.6022 F   0  0  0  0  0  0  0  0  0  0  0  0
   -3.2826   -5.9678   -9.5439 F   0  0  0  0  0  0  0  0  0  0  0  0
   -4.0158   -4.3209   -8.2391 F   0  0  0  0  0  0  0  0  0  0  0  0
   -4.8117   -2.8422  -10.2069 F   0  0  0  0  0  0  0  0  0  0  0  0
   -3.9090   -4.1032  -11.7912 F   0  0  0  0  0  0  0  0  0  0  0  0
   -6.3641   -4.9392   -9.3847 F   0  0  0  0  0  0  0  0  0  0  0  0
   -5.6212   -6.1883  -11.0666 F   0  0  0  0  0  0  0  0  0  0  0  0
  1  2  1  0
  2  3  1  0
  3  4  1  0
  4  5  1  0
  5  6  1  0
  5  7  1  0
  5  8  1  0
  8  9  2  0
  8 10  2  0
  8 11  1  0
  4 12  1  0
  4 13  1  0
  3 14  1  0
  3 15  1  0
  2 16  1  0
  2 17  1  0
  1 18  1  0
 18 19  1  0
 19 20  1  0
 20 21  1  0
 20 22  1  0
 20 23  1  0
 19 24  1  0
 19 25  1  0
 18 26  1  0
 18 27  1  0
  1 28  1  0
  1 29  1  0
M  END
$$$$
