
     RDKit          3D

 25 24  0  0  0  0  0  0  0  0999 V2000
    2.0353    1.1352   -4.5190 C   0  0  0  0  0  0  0  0  0  0  0  0
    2.8081    1.3317   -3.5389 O   0  0  0  0  0  0  0  0  0  0  0  0
    2.0215    2.0040   -5.7255 C   0  0  0  0  0  0  0  0  0  0  0  0
    2.2896    3.4142   -5.2092 C   0  0  0  0  0  0  0  0  0  0  0  0
    2.7067    4.3466   -6.2755 C   0  0  0  0  0  0  0  0  0  0  0  0
    2.9305    5.7745   -5.8915 C   0  0  0  0  0  0  0  0  0  0  0  0
    3.5594    6.6703   -6.8943 C   0  0  0  0  0  0  0  0  0  0  0  0
    3.7373    8.0895   -6.3572 C   0  0  0  0  0  0  0  0  0  0  0  0
    4.5915    8.9144   -7.2904 C   0  0  0  0  0  0  0  0  0  0  0  0
    4.0332    9.0044   -8.5302 F   0  0  0  0  0  0  0  0  0  0  0  0
    5.8421    8.3278   -7.3371 F   0  0  0  0  0  0  0  0  0  0  0  0
    4.8051   10.1945   -6.7782 F   0  0  0  0  0  0  0  0  0  0  0  0
    4.3826    8.0451   -5.1409 F   0  0  0  0  0  0  0  0  0  0  0  0
    2.5378    8.7468   -6.2010 F   0  0  0  0  0  0  0  0  0  0  0  0
    4.8103    6.2058   -7.2247 F   0  0  0  0  0  0  0  0  0  0  0  0
    2.8119    6.8466   -8.0502 F   0  0  0  0  0  0  0  0  0  0  0  0
    1.7339    6.3648   -5.4577 F   0  0  0  0  0  0  0  0  0  0  0  0
    3.7415    5.8337   -4.7377 F   0  0  0  0  0  0  0  0  0  0  0  0
    1.7128    4.3800   -7.2770 F   0  0  0  0  0  0  0  0  0  0  0  0
    3.8411    3.9110   -6.9601 F   0  0  0  0  0  0  0  0  0  0  0  0
    3.1374    3.3020   -4.1368 F   0  0  0  0  0  0  0  0  0  0  0  0
    1.0241    3.8167   -4.7419 F   0  0  0  0  0  0  0  0  0  0  0  0
    0.8726    1.8958   -6.4398 F   0  0  0  0  0  0  0  0  0  0  0  0
    3.0762    1.6154   -6.5282 F   0  0  0  0  0  0  0  0  0  0  0  0
    1.1567    0.0603   -4.4728 O   0  0  0  0  0  0  0  0  0  0  0  0
  1  2  2  0
  1  3  1  0
  3  4  1  0
  4  5  1  0
  5  6  1  0
  6  7  1  0
  7  8  1  0
  8  9  1  0
  9 10  1  0
  9 11  1  0
  9 12  1  0
  8 13  1  0
  8 14  1  0
  7 15  1  0
  7 16  1  0
  6 17  1  0
  6 18  1  0
  5 19  1  0
  5 20  1  0
  4 21  1  0
  4 22  1  0
  3 23  1  0
  3 24  1  0
  1 25  1  0
M  END
$$$$
