
     RDKit          3D

 25 24  0  0  0  0  0  0  0  0999 V2000
    6.1819   -2.6124  -13.7769 C   0  0  0  0  0  0  0  0  0  0  0  0
    5.4453   -3.6323  -13.6603 O   0  0  0  0  0  0  0  0  0  0  0  0
    6.4188   -1.6540  -12.6651 C   0  0  0  0  0  0  0  0  0  0  0  0
    5.1049   -0.8972  -12.4990 C   0  0  0  0  0  0  0  0  0  0  0  0
    5.1705    0.1457  -11.4557 C   0  0  0  0  0  0  0  0  0  0  0  0
    3.8805    0.7623  -11.0176 C   0  0  0  0  0  0  0  0  0  0  0  0
    3.9477    1.9918  -10.1884 C   0  0  0  0  0  0  0  0  0  0  0  0
    2.5573    2.4965   -9.8056 C   0  0  0  0  0  0  0  0  0  0  0  0
    2.6532    3.7014   -8.9001 C   0  0  0  0  0  0  0  0  0  0  0  0
    1.4682    4.3708   -8.8323 F   0  0  0  0  0  0  0  0  0  0  0  0
    3.6655    4.5073   -9.3862 F   0  0  0  0  0  0  0  0  0  0  0  0
    3.0593    3.3356   -7.6164 F   0  0  0  0  0  0  0  0  0  0  0  0
    1.8845    1.5142   -9.1124 F   0  0  0  0  0  0  0  0  0  0  0  0
    1.8090    2.8591  -10.9027 F   0  0  0  0  0  0  0  0  0  0  0  0
    4.6190    1.7356   -9.0165 F   0  0  0  0  0  0  0  0  0  0  0  0
    4.5290    3.0788  -10.8257 F   0  0  0  0  0  0  0  0  0  0  0  0
    3.0522    1.0162  -12.1212 F   0  0  0  0  0  0  0  0  0  0  0  0
    3.1322   -0.1787  -10.2782 F   0  0  0  0  0  0  0  0  0  0  0  0
    5.9588    1.2193  -11.9226 F   0  0  0  0  0  0  0  0  0  0  0  0
    5.8460   -0.2776  -10.3111 F   0  0  0  0  0  0  0  0  0  0  0  0
    4.1104   -1.8316  -12.3596 F   0  0  0  0  0  0  0  0  0  0  0  0
    4.9548   -0.2633  -13.7470 F   0  0  0  0  0  0  0  0  0  0  0  0
    7.4874   -0.8465  -12.8842 F   0  0  0  0  0  0  0  0  0  0  0  0
    6.6543   -2.3941  -11.5230 F   0  0  0  0  0  0  0  0  0  0  0  0
    6.8008   -2.3704  -14.9967 O   0  0  0  0  0  0  0  0  0  0  0  0
  1  2  2  0
  1  3  1  0
  3  4  1  0
  4  5  1  0
  5  6  1  0
  6  7  1  0
  7  8  1  0
  8  9  1  0
  9 10  1  0
  9 11  1  0
  9 12  1  0
  8 13  1  0
  8 14  1  0
  7 15  1  0
  7 16  1  0
  6 17  1  0
  6 18  1  0
  5 19  1  0
  5 20  1  0
  4 21  1  0
  4 22  1  0
  3 23  1  0
  3 24  1  0
  1 25  1  0
M  END
$$$$
