
     RDKit          3D

 25 24  0  0  0  0  0  0  0  0999 V2000
    9.5021  -13.8084  -11.9539 C   0  0  0  0  0  0  0  0  0  0  0  0
    9.9461  -14.7244  -11.2054 O   0  0  0  0  0  0  0  0  0  0  0  0
    8.1848  -13.1539  -11.7376 C   0  0  0  0  0  0  0  0  0  0  0  0
    8.5039  -11.8135  -11.0830 C   0  0  0  0  0  0  0  0  0  0  0  0
    7.2954  -11.0243  -10.7714 C   0  0  0  0  0  0  0  0  0  0  0  0
    7.4664   -9.8188   -9.9032 C   0  0  0  0  0  0  0  0  0  0  0  0
    6.2803   -8.9553   -9.6768 C   0  0  0  0  0  0  0  0  0  0  0  0
    6.6339   -7.7003   -8.8804 C   0  0  0  0  0  0  0  0  0  0  0  0
    5.4495   -6.7673   -8.7932 C   0  0  0  0  0  0  0  0  0  0  0  0
    5.7086   -5.7059   -7.9788 F   0  0  0  0  0  0  0  0  0  0  0  0
    4.3717   -7.5047   -8.3404 F   0  0  0  0  0  0  0  0  0  0  0  0
    5.0758   -6.3085  -10.0568 F   0  0  0  0  0  0  0  0  0  0  0  0
    7.6473   -7.0191   -9.5183 F   0  0  0  0  0  0  0  0  0  0  0  0
    7.0320   -7.9884   -7.5944 F   0  0  0  0  0  0  0  0  0  0  0  0
    5.7643   -8.5357  -10.8799 F   0  0  0  0  0  0  0  0  0  0  0  0
    5.2764   -9.5502   -8.9258 F   0  0  0  0  0  0  0  0  0  0  0  0
    7.9987  -10.1776   -8.6557 F   0  0  0  0  0  0  0  0  0  0  0  0
    8.4710   -8.9858  -10.4410 F   0  0  0  0  0  0  0  0  0  0  0  0
    6.3680  -11.8446  -10.0941 F   0  0  0  0  0  0  0  0  0  0  0  0
    6.6011  -10.6264  -11.9139 F   0  0  0  0  0  0  0  0  0  0  0  0
    9.4482  -11.1936  -11.8612 F   0  0  0  0  0  0  0  0  0  0  0  0
    9.1037  -12.1989   -9.8691 F   0  0  0  0  0  0  0  0  0  0  0  0
    7.3274  -13.9204  -11.0172 F   0  0  0  0  0  0  0  0  0  0  0  0
    7.6284  -12.9217  -12.9803 F   0  0  0  0  0  0  0  0  0  0  0  0
   10.2755  -13.3900  -13.0293 O   0  0  0  0  0  0  0  0  0  0  0  0
  1  2  2  0
  1  3  1  0
  3  4  1  0
  4  5  1  0
  5  6  1  0
  6  7  1  0
  7  8  1  0
  8  9  1  0
  9 10  1  0
  9 11  1  0
  9 12  1  0
  8 13  1  0
  8 14  1  0
  7 15  1  0
  7 16  1  0
  6 17  1  0
  6 18  1  0
  5 19  1  0
  5 20  1  0
  4 21  1  0
  4 22  1  0
  3 23  1  0
  3 24  1  0
  1 25  1  0
M  END
$$$$
