
     RDKit          3D

  5  4  0  0  0  0  0  0  0  0999 V2000
   13.2865   -8.4735  -17.8215 C   0  0  0  0  0  0  0  0  0  0  0  0
   12.8961   -9.7072  -17.1022 C   0  0  0  0  0  0  0  0  0  0  0  0
   11.6749  -10.0416  -17.0658 O   0  0  0  0  0  0  0  0  0  0  0  0
   13.7818  -10.5704  -16.4969 O   0  0  0  0  0  0  0  0  0  0  0  0
   14.5932   -8.1396  -17.4865 F   0  0  0  0  0  0  0  0  0  0  0  0
  1  2  1  0
  2  3  2  0
  2  4  1  0
  1  5  1  0
M  END
$$$$
