
     RDKit          3D

  5  4  0  0  0  0  0  0  0  0999 V2000
    2.9072   -6.3399  -10.3591 C   0  0  0  0  0  0  0  0  0  0  0  0
    3.8136   -7.2948  -11.0360 C   0  0  0  0  0  0  0  0  0  0  0  0
    4.8988   -7.6236  -10.4713 O   0  0  0  0  0  0  0  0  0  0  0  0
    3.5421   -7.9099  -12.2376 O   0  0  0  0  0  0  0  0  0  0  0  0
    2.8617   -5.1555  -11.0847 F   0  0  0  0  0  0  0  0  0  0  0  0
  1  2  1  0
  2  3  2  0
  2  4  1  0
  1  5  1  0
M  END
$$$$
