
     RDKit          3D

  5  4  0  0  0  0  0  0  0  0999 V2000
   -0.2995   -9.3455   -6.6797 C   0  0  0  0  0  0  0  0  0  0  0  0
    0.2704   -8.9069   -7.9737 C   0  0  0  0  0  0  0  0  0  0  0  0
    1.2815   -8.1438   -7.9772 O   0  0  0  0  0  0  0  0  0  0  0  0
   -0.1901   -9.3125   -9.2063 O   0  0  0  0  0  0  0  0  0  0  0  0
   -1.3687  -10.2017   -6.9144 F   0  0  0  0  0  0  0  0  0  0  0  0
  1  2  1  0
  2  3  2  0
  2  4  1  0
  1  5  1  0
M  END
$$$$
