
     RDKit          3D

  5  4  0  0  0  0  0  0  0  0999 V2000
    5.4840   -3.9653   -5.6138 C   0  0  0  0  0  0  0  0  0  0  0  0
    6.7445   -4.1598   -6.3654 C   0  0  0  0  0  0  0  0  0  0  0  0
    6.7826   -3.8630   -7.5963 O   0  0  0  0  0  0  0  0  0  0  0  0
    7.9243   -4.6005   -5.8089 O   0  0  0  0  0  0  0  0  0  0  0  0
    5.5962   -4.5638   -4.3646 F   0  0  0  0  0  0  0  0  0  0  0  0
  1  2  1  0
  2  3  2  0
  2  4  1  0
  1  5  1  0
M  END
$$$$
