
     RDKit          3D

  5  4  0  0  0  0  0  0  0  0999 V2000
  -15.5487   -1.6846  -14.2559 C   0  0  0  0  0  0  0  0  0  0  0  0
  -15.9609   -2.0630  -15.6265 C   0  0  0  0  0  0  0  0  0  0  0  0
  -15.8398   -1.2195  -16.5637 O   0  0  0  0  0  0  0  0  0  0  0  0
  -16.4298   -3.3072  -15.9843 O   0  0  0  0  0  0  0  0  0  0  0  0
  -15.2193   -0.3347  -14.2307 F   0  0  0  0  0  0  0  0  0  0  0  0
  1  2  1  0
  2  3  2  0
  2  4  1  0
  1  5  1  0
M  END
$$$$
