
     RDKit          3D

 25 24  0  0  0  0  0  0  0  0999 V2000
  -11.9283   10.6473   -0.8827 C   0  0  0  0  0  0  0  0  0  0  0  0
  -13.1746   10.5151   -0.7949 O   0  0  0  0  0  0  0  0  0  0  0  0
  -10.9487    9.5669   -0.8713 C   0  0  0  0  0  0  0  0  0  0  0  0
  -11.3835    8.1909   -0.9983 C   0  0  0  0  0  0  0  0  0  0  0  0
  -10.5770    6.9796   -1.0235 C   0  0  0  0  0  0  0  0  0  0  0  0
  -11.0799    5.6343   -1.2610 C   0  0  0  0  0  0  0  0  0  0  0  0
  -10.3416    4.3914   -1.0520 C   0  0  0  0  0  0  0  0  0  0  0  0
  -10.9913    3.1271   -1.5758 C   0  0  0  0  0  0  0  0  0  0  0  0
  -10.4484    1.9257   -0.8300 C   0  0  0  0  0  0  0  0  0  0  0  0
  -11.4331    1.3503   -0.0379 F   0  0  0  0  0  0  0  0  0  0  0  0
  -10.0860    0.9758   -1.7680 F   0  0  0  0  0  0  0  0  0  0  0  0
   -9.3227    2.2383   -0.1043 F   0  0  0  0  0  0  0  0  0  0  0  0
  -10.9010    2.9141   -2.9005 F   0  0  0  0  0  0  0  0  0  0  0  0
  -12.3506    3.1563   -1.1676 F   0  0  0  0  0  0  0  0  0  0  0  0
   -8.9924    4.4330   -1.2217 F   0  0  0  0  0  0  0  0  0  0  0  0
  -10.4379    4.2030    0.3811 F   0  0  0  0  0  0  0  0  0  0  0  0
  -12.2835    5.4980   -0.5219 F   0  0  0  0  0  0  0  0  0  0  0  0
  -11.5390    5.5937   -2.6143 F   0  0  0  0  0  0  0  0  0  0  0  0
   -9.5718    7.1398   -2.0497 F   0  0  0  0  0  0  0  0  0  0  0  0
   -9.7248    7.0161    0.1174 F   0  0  0  0  0  0  0  0  0  0  0  0
  -12.1601    8.1620   -2.2180 F   0  0  0  0  0  0  0  0  0  0  0  0
  -12.4532    8.0034   -0.0459 F   0  0  0  0  0  0  0  0  0  0  0  0
   -9.8141    9.9615   -1.5510 F   0  0  0  0  0  0  0  0  0  0  0  0
  -10.4585    9.6419    0.5037 F   0  0  0  0  0  0  0  0  0  0  0  0
  -11.4475   11.9634   -1.0024 O   0  0  0  0  0  0  0  0  0  0  0  0
  1  2  2  0
  1  3  1  0
  3  4  1  0
  4  5  1  0
  5  6  1  0
  6  7  1  0
  7  8  1  0
  8  9  1  0
  9 10  1  0
  9 11  1  0
  9 12  1  0
  8 13  1  0
  8 14  1  0
  7 15  1  0
  7 16  1  0
  6 17  1  0
  6 18  1  0
  5 19  1  0
  5 20  1  0
  4 21  1  0
  4 22  1  0
  3 23  1  0
  3 24  1  0
  1 25  1  0
M  END
$$$$
