
     RDKit          3D

 25 24  0  0  0  0  0  0  0  0999 V2000
  -16.2166    7.8902   -3.4489 C   0  0  0  0  0  0  0  0  0  0  0  0
  -16.3286    9.0915   -3.0985 O   0  0  0  0  0  0  0  0  0  0  0  0
  -15.4546    6.8610   -2.7508 C   0  0  0  0  0  0  0  0  0  0  0  0
  -14.2815    6.2798   -3.3709 C   0  0  0  0  0  0  0  0  0  0  0  0
  -13.4369    5.1980   -2.8866 C   0  0  0  0  0  0  0  0  0  0  0  0
  -12.1357    4.8342   -3.4286 C   0  0  0  0  0  0  0  0  0  0  0  0
  -11.2744    3.7574   -2.9465 C   0  0  0  0  0  0  0  0  0  0  0  0
  -10.0102    3.5009   -3.7409 C   0  0  0  0  0  0  0  0  0  0  0  0
   -9.2213    2.3783   -3.0992 C   0  0  0  0  0  0  0  0  0  0  0  0
   -9.1273    2.5633   -1.7263 F   0  0  0  0  0  0  0  0  0  0  0  0
   -9.9244    1.2033   -3.2958 F   0  0  0  0  0  0  0  0  0  0  0  0
   -7.9856    2.2213   -3.6824 F   0  0  0  0  0  0  0  0  0  0  0  0
   -9.2059    4.5598   -3.9415 F   0  0  0  0  0  0  0  0  0  0  0  0
  -10.4042    2.9328   -4.9807 F   0  0  0  0  0  0  0  0  0  0  0  0
  -11.1165    3.6423   -1.6002 F   0  0  0  0  0  0  0  0  0  0  0  0
  -12.0547    2.5726   -3.2394 F   0  0  0  0  0  0  0  0  0  0  0  0
  -12.3088    4.5985   -4.8171 F   0  0  0  0  0  0  0  0  0  0  0  0
  -11.3315    6.0160   -3.4110 F   0  0  0  0  0  0  0  0  0  0  0  0
  -13.1521    5.4506   -1.4922 F   0  0  0  0  0  0  0  0  0  0  0  0
  -14.2677    4.0514   -2.7302 F   0  0  0  0  0  0  0  0  0  0  0  0
  -13.3893    7.3971   -3.5887 F   0  0  0  0  0  0  0  0  0  0  0  0
  -14.6322    6.0009   -4.7441 F   0  0  0  0  0  0  0  0  0  0  0  0
  -15.4074    7.1522   -1.4025 F   0  0  0  0  0  0  0  0  0  0  0  0
  -16.4129    5.7574   -2.7376 F   0  0  0  0  0  0  0  0  0  0  0  0
  -16.8934    7.5175   -4.6239 O   0  0  0  0  0  0  0  0  0  0  0  0
  1  2  2  0
  1  3  1  0
  3  4  1  0
  4  5  1  0
  5  6  1  0
  6  7  1  0
  7  8  1  0
  8  9  1  0
  9 10  1  0
  9 11  1  0
  9 12  1  0
  8 13  1  0
  8 14  1  0
  7 15  1  0
  7 16  1  0
  6 17  1  0
  6 18  1  0
  5 19  1  0
  5 20  1  0
  4 21  1  0
  4 22  1  0
  3 23  1  0
  3 24  1  0
  1 25  1  0
M  END
$$$$
