
     RDKit          3D

 25 24  0  0  0  0  0  0  0  0999 V2000
  -15.6412    6.0324   -2.1041 C   0  0  0  0  0  0  0  0  0  0  0  0
  -15.4468    7.2201   -2.4646 O   0  0  0  0  0  0  0  0  0  0  0  0
  -14.7738    4.8960   -2.3927 C   0  0  0  0  0  0  0  0  0  0  0  0
  -13.3575    4.9700   -2.0977 C   0  0  0  0  0  0  0  0  0  0  0  0
  -12.3123    4.0037   -2.4013 C   0  0  0  0  0  0  0  0  0  0  0  0
  -10.9496    4.0443   -1.8906 C   0  0  0  0  0  0  0  0  0  0  0  0
   -9.8517    3.1725   -2.3009 C   0  0  0  0  0  0  0  0  0  0  0  0
   -8.5228    3.3933   -1.6078 C   0  0  0  0  0  0  0  0  0  0  0  0
   -7.3906    3.0034   -2.5355 C   0  0  0  0  0  0  0  0  0  0  0  0
   -7.6149    3.4862   -3.8179 F   0  0  0  0  0  0  0  0  0  0  0  0
   -6.2387    3.6154   -2.0749 F   0  0  0  0  0  0  0  0  0  0  0  0
   -7.1668    1.6463   -2.5292 F   0  0  0  0  0  0  0  0  0  0  0  0
   -8.3613    2.7858   -0.4190 F   0  0  0  0  0  0  0  0  0  0  0  0
   -8.3475    4.7960   -1.4783 F   0  0  0  0  0  0  0  0  0  0  0  0
  -10.1478    1.8644   -2.5290 F   0  0  0  0  0  0  0  0  0  0  0  0
   -9.5663    3.6335   -3.6442 F   0  0  0  0  0  0  0  0  0  0  0  0
  -10.4749    5.3705   -2.0621 F   0  0  0  0  0  0  0  0  0  0  0  0
  -11.0335    3.9248   -0.4686 F   0  0  0  0  0  0  0  0  0  0  0  0
  -12.7802    2.7014   -1.9837 F   0  0  0  0  0  0  0  0  0  0  0  0
  -12.3274    3.7941   -3.8102 F   0  0  0  0  0  0  0  0  0  0  0  0
  -13.2901    5.1737   -0.6675 F   0  0  0  0  0  0  0  0  0  0  0  0
  -12.9100    6.2730   -2.5319 F   0  0  0  0  0  0  0  0  0  0  0  0
  -15.4409    3.7201   -2.1149 F   0  0  0  0  0  0  0  0  0  0  0  0
  -14.8148    4.8707   -3.8536 F   0  0  0  0  0  0  0  0  0  0  0  0
  -16.8060    5.7908   -1.3541 O   0  0  0  0  0  0  0  0  0  0  0  0
  1  2  2  0
  1  3  1  0
  3  4  1  0
  4  5  1  0
  5  6  1  0
  6  7  1  0
  7  8  1  0
  8  9  1  0
  9 10  1  0
  9 11  1  0
  9 12  1  0
  8 13  1  0
  8 14  1  0
  7 15  1  0
  7 16  1  0
  6 17  1  0
  6 18  1  0
  5 19  1  0
  5 20  1  0
  4 21  1  0
  4 22  1  0
  3 23  1  0
  3 24  1  0
  1 25  1  0
M  END
$$$$
