
     RDKit          3D

 29 28  0  0  0  0  0  0  0  0999 V2000
    3.3725    4.2297  -12.0494 C   0  0  0  0  0  0  0  0  0  0  0  0
    2.6488    3.6389  -13.2774 C   0  0  0  0  0  0  0  0  0  0  0  0
    3.6488    3.4632  -14.3889 C   0  0  0  0  0  0  0  0  0  0  0  0
    3.1410    2.5578  -15.4943 C   0  0  0  0  0  0  0  0  0  0  0  0
    4.1005    2.7564  -16.6666 C   0  0  0  0  0  0  0  0  0  0  0  0
    5.3374    2.2577  -16.3893 F   0  0  0  0  0  0  0  0  0  0  0  0
    4.2118    4.1176  -16.8750 F   0  0  0  0  0  0  0  0  0  0  0  0
    3.4135    2.0675  -18.1574 S   0  0  0  0  0  0  0  0  0  0  0  0
    3.0634    0.6383  -17.8939 O   0  0  0  0  0  0  0  0  0  0  0  0
    4.4679    2.1621  -19.2192 O   0  0  0  0  0  0  0  0  0  0  0  0
    2.1009    2.9914  -18.6289 O   0  0  0  0  0  0  0  0  0  0  0  0
    1.9074    2.9453  -15.9312 F   0  0  0  0  0  0  0  0  0  0  0  0
    3.1943    1.2631  -15.0168 F   0  0  0  0  0  0  0  0  0  0  0  0
    4.8624    3.0660  -13.9047 F   0  0  0  0  0  0  0  0  0  0  0  0
    3.8627    4.7047  -14.9819 F   0  0  0  0  0  0  0  0  0  0  0  0
    1.6644    4.5030  -13.7011 F   0  0  0  0  0  0  0  0  0  0  0  0
    2.1637    2.3719  -12.9794 F   0  0  0  0  0  0  0  0  0  0  0  0
    2.3516    4.3210  -10.9774 C   0  0  0  0  0  0  0  0  0  0  0  0
    2.7681    4.8344   -9.6558 C   0  0  0  0  0  0  0  0  0  0  0  0
    1.7623    4.8107   -8.5598 C   0  0  0  0  0  0  0  0  0  0  0  0
    1.1470    3.5440   -8.6460 F   0  0  0  0  0  0  0  0  0  0  0  0
    0.7603    5.7213   -8.7340 F   0  0  0  0  0  0  0  0  0  0  0  0
    2.3013    4.8058   -7.2821 F   0  0  0  0  0  0  0  0  0  0  0  0
    3.3574    6.0993   -9.7288 F   0  0  0  0  0  0  0  0  0  0  0  0
    3.8153    4.0056   -9.2179 F   0  0  0  0  0  0  0  0  0  0  0  0
    1.8620    3.0243  -10.7845 F   0  0  0  0  0  0  0  0  0  0  0  0
    1.2224    5.0429  -11.3952 F   0  0  0  0  0  0  0  0  0  0  0  0
    3.8960    5.4476  -12.4591 F   0  0  0  0  0  0  0  0  0  0  0  0
    4.3545    3.3441  -11.6587 F   0  0  0  0  0  0  0  0  0  0  0  0
  1  2  1  0
  2  3  1  0
  3  4  1  0
  4  5  1  0
  5  6  1  0
  5  7  1  0
  5  8  1  0
  8  9  2  0
  8 10  2  0
  8 11  1  0
  4 12  1  0
  4 13  1  0
  3 14  1  0
  3 15  1  0
  2 16  1  0
  2 17  1  0
  1 18  1  0
 18 19  1  0
 19 20  1  0
 20 21  1  0
 20 22  1  0
 20 23  1  0
 19 24  1  0
 19 25  1  0
 18 26  1  0
 18 27  1  0
  1 28  1  0
  1 29  1  0
M  END
$$$$
