
     RDKit          3D

 29 28  0  0  0  0  0  0  0  0999 V2000
    3.3036    3.6337  -11.9674 C   0  0  0  0  0  0  0  0  0  0  0  0
    3.0003    4.1090  -13.4037 C   0  0  0  0  0  0  0  0  0  0  0  0
    3.4096    3.0268  -14.3669 C   0  0  0  0  0  0  0  0  0  0  0  0
    3.4731    3.5145  -15.8014 C   0  0  0  0  0  0  0  0  0  0  0  0
    3.6694    2.2635  -16.6564 C   0  0  0  0  0  0  0  0  0  0  0  0
    2.6925    1.3427  -16.4254 F   0  0  0  0  0  0  0  0  0  0  0  0
    4.8854    1.7135  -16.2994 F   0  0  0  0  0  0  0  0  0  0  0  0
    3.7932    2.6989  -18.3781 S   0  0  0  0  0  0  0  0  0  0  0  0
    2.5713    3.4739  -18.7534 O   0  0  0  0  0  0  0  0  0  0  0  0
    3.8630    1.4197  -19.1573 O   0  0  0  0  0  0  0  0  0  0  0  0
    5.2135    3.5481  -18.6235 O   0  0  0  0  0  0  0  0  0  0  0  0
    4.5650    4.3055  -16.0129 F   0  0  0  0  0  0  0  0  0  0  0  0
    2.2659    4.1259  -16.0773 F   0  0  0  0  0  0  0  0  0  0  0  0
    2.6259    1.9171  -14.2269 F   0  0  0  0  0  0  0  0  0  0  0  0
    4.7027    2.6236  -14.0444 F   0  0  0  0  0  0  0  0  0  0  0  0
    3.7242    5.2461  -13.6831 F   0  0  0  0  0  0  0  0  0  0  0  0
    1.6323    4.2857  -13.5672 F   0  0  0  0  0  0  0  0  0  0  0  0
    2.5800    4.5640  -11.0671 C   0  0  0  0  0  0  0  0  0  0  0  0
    2.7241    4.3801   -9.6080 C   0  0  0  0  0  0  0  0  0  0  0  0
    1.6635    4.9504   -8.7341 C   0  0  0  0  0  0  0  0  0  0  0  0
    2.0322    4.5942   -7.4197 F   0  0  0  0  0  0  0  0  0  0  0  0
    0.4387    4.3843   -8.9412 F   0  0  0  0  0  0  0  0  0  0  0  0
    1.6409    6.3361   -8.6837 F   0  0  0  0  0  0  0  0  0  0  0  0
    3.9820    4.7647   -9.1365 F   0  0  0  0  0  0  0  0  0  0  0  0
    2.6925    2.9943   -9.3755 F   0  0  0  0  0  0  0  0  0  0  0  0
    1.2203    4.4325  -11.3707 F   0  0  0  0  0  0  0  0  0  0  0  0
    2.8595    5.9054  -11.3724 F   0  0  0  0  0  0  0  0  0  0  0  0
    4.6849    3.6552  -11.8375 F   0  0  0  0  0  0  0  0  0  0  0  0
    2.7842    2.3657  -11.8128 F   0  0  0  0  0  0  0  0  0  0  0  0
  1  2  1  0
  2  3  1  0
  3  4  1  0
  4  5  1  0
  5  6  1  0
  5  7  1  0
  5  8  1  0
  8  9  2  0
  8 10  2  0
  8 11  1  0
  4 12  1  0
  4 13  1  0
  3 14  1  0
  3 15  1  0
  2 16  1  0
  2 17  1  0
  1 18  1  0
 18 19  1  0
 19 20  1  0
 20 21  1  0
 20 22  1  0
 20 23  1  0
 19 24  1  0
 19 25  1  0
 18 26  1  0
 18 27  1  0
  1 28  1  0
  1 29  1  0
M  END
$$$$
