
     RDKit          3D

 29 28  0  0  0  0  0  0  0  0999 V2000
    3.9186    4.6208  -11.7400 C   0  0  0  0  0  0  0  0  0  0  0  0
    3.6587    4.7793  -13.2526 C   0  0  0  0  0  0  0  0  0  0  0  0
    3.2443    3.4452  -13.8137 C   0  0  0  0  0  0  0  0  0  0  0  0
    3.1006    3.4652  -15.3233 C   0  0  0  0  0  0  0  0  0  0  0  0
    3.0165    2.0008  -15.7512 C   0  0  0  0  0  0  0  0  0  0  0  0
    1.9295    1.3841  -15.2093 F   0  0  0  0  0  0  0  0  0  0  0  0
    4.1558    1.3745  -15.2841 F   0  0  0  0  0  0  0  0  0  0  0  0
    3.0533    1.8675  -17.5260 S   0  0  0  0  0  0  0  0  0  0  0  0
    2.8070    0.4394  -17.8928 O   0  0  0  0  0  0  0  0  0  0  0  0
    4.4173    2.2972  -17.9769 O   0  0  0  0  0  0  0  0  0  0  0  0
    1.9245    2.9185  -18.1739 O   0  0  0  0  0  0  0  0  0  0  0  0
    4.2109    3.9831  -15.9246 F   0  0  0  0  0  0  0  0  0  0  0  0
    1.9306    4.1398  -15.6119 F   0  0  0  0  0  0  0  0  0  0  0  0
    2.1263    2.9711  -13.1890 F   0  0  0  0  0  0  0  0  0  0  0  0
    4.2533    2.5256  -13.5396 F   0  0  0  0  0  0  0  0  0  0  0  0
    4.8116    5.1860  -13.8855 F   0  0  0  0  0  0  0  0  0  0  0  0
    2.5926    5.6443  -13.4639 F   0  0  0  0  0  0  0  0  0  0  0  0
    4.6467    5.8426  -11.3195 C   0  0  0  0  0  0  0  0  0  0  0  0
    5.1433    5.9182   -9.9298 C   0  0  0  0  0  0  0  0  0  0  0  0
    5.7428    7.2042   -9.4821 C   0  0  0  0  0  0  0  0  0  0  0  0
    6.8348    7.4274  -10.3470 F   0  0  0  0  0  0  0  0  0  0  0  0
    6.2733    7.1381   -8.2260 F   0  0  0  0  0  0  0  0  0  0  0  0
    4.9456    8.3183   -9.6974 F   0  0  0  0  0  0  0  0  0  0  0  0
    5.9953    4.8604   -9.6021 F   0  0  0  0  0  0  0  0  0  0  0  0
    4.0293    5.7170   -9.0967 F   0  0  0  0  0  0  0  0  0  0  0  0
    3.7651    6.9134  -11.5053 F   0  0  0  0  0  0  0  0  0  0  0  0
    5.7121    6.1364  -12.1852 F   0  0  0  0  0  0  0  0  0  0  0  0
    4.6312    3.4394  -11.5926 F   0  0  0  0  0  0  0  0  0  0  0  0
    2.7010    4.5803  -11.0940 F   0  0  0  0  0  0  0  0  0  0  0  0
  1  2  1  0
  2  3  1  0
  3  4  1  0
  4  5  1  0
  5  6  1  0
  5  7  1  0
  5  8  1  0
  8  9  2  0
  8 10  2  0
  8 11  1  0
  4 12  1  0
  4 13  1  0
  3 14  1  0
  3 15  1  0
  2 16  1  0
  2 17  1  0
  1 18  1  0
 18 19  1  0
 19 20  1  0
 20 21  1  0
 20 22  1  0
 20 23  1  0
 19 24  1  0
 19 25  1  0
 18 26  1  0
 18 27  1  0
  1 28  1  0
  1 29  1  0
M  END
$$$$
