
     RDKit          3D

 29 28  0  0  0  0  0  0  0  0999 V2000
    3.9400    5.1128  -10.5465 C   0  0  0  0  0  0  0  0  0  0  0  0
    5.0873    6.1443  -10.5704 C   0  0  0  0  0  0  0  0  0  0  0  0
    5.2743    6.6258  -11.9845 C   0  0  0  0  0  0  0  0  0  0  0  0
    5.9715    7.9706  -12.0566 C   0  0  0  0  0  0  0  0  0  0  0  0
    6.0240    8.3314  -13.5404 C   0  0  0  0  0  0  0  0  0  0  0  0
    4.7798    8.3468  -14.0946 F   0  0  0  0  0  0  0  0  0  0  0  0
    6.7737    7.3565  -14.1698 F   0  0  0  0  0  0  0  0  0  0  0  0
    6.8876    9.8700  -13.7771 S   0  0  0  0  0  0  0  0  0  0  0  0
    7.0007   10.1214  -15.2463 O   0  0  0  0  0  0  0  0  0  0  0  0
    8.2477    9.7163  -13.1649 O   0  0  0  0  0  0  0  0  0  0  0  0
    6.0723   11.0822  -12.9618 O   0  0  0  0  0  0  0  0  0  0  0  0
    7.2654    7.8865  -11.6306 F   0  0  0  0  0  0  0  0  0  0  0  0
    5.1972    8.8691  -11.3493 F   0  0  0  0  0  0  0  0  0  0  0  0
    4.0945    6.6118  -12.6722 F   0  0  0  0  0  0  0  0  0  0  0  0
    6.1102    5.7278  -12.6429 F   0  0  0  0  0  0  0  0  0  0  0  0
    6.2564    5.5538  -10.1465 F   0  0  0  0  0  0  0  0  0  0  0  0
    4.7408    7.2585   -9.8169 F   0  0  0  0  0  0  0  0  0  0  0  0
    3.3834    5.1514   -9.1723 C   0  0  0  0  0  0  0  0  0  0  0  0
    1.9760    4.7466   -8.9754 C   0  0  0  0  0  0  0  0  0  0  0  0
    1.4089    4.8716   -7.6056 C   0  0  0  0  0  0  0  0  0  0  0  0
    2.4057    4.3696   -6.7424 F   0  0  0  0  0  0  0  0  0  0  0  0
    0.3142    4.0809   -7.4060 F   0  0  0  0  0  0  0  0  0  0  0  0
    1.2475    6.1766   -7.1649 F   0  0  0  0  0  0  0  0  0  0  0  0
    1.7033    3.4745   -9.4852 F   0  0  0  0  0  0  0  0  0  0  0  0
    1.1995    5.5993   -9.7788 F   0  0  0  0  0  0  0  0  0  0  0  0
    3.5009    6.4752   -8.7339 F   0  0  0  0  0  0  0  0  0  0  0  0
    4.1803    4.4311   -8.2685 F   0  0  0  0  0  0  0  0  0  0  0  0
    4.5048    3.8990  -10.9114 F   0  0  0  0  0  0  0  0  0  0  0  0
    2.9693    5.5251  -11.4348 F   0  0  0  0  0  0  0  0  0  0  0  0
  1  2  1  0
  2  3  1  0
  3  4  1  0
  4  5  1  0
  5  6  1  0
  5  7  1  0
  5  8  1  0
  8  9  2  0
  8 10  2  0
  8 11  1  0
  4 12  1  0
  4 13  1  0
  3 14  1  0
  3 15  1  0
  2 16  1  0
  2 17  1  0
  1 18  1  0
 18 19  1  0
 19 20  1  0
 20 21  1  0
 20 22  1  0
 20 23  1  0
 19 24  1  0
 19 25  1  0
 18 26  1  0
 18 27  1  0
  1 28  1  0
  1 29  1  0
M  END
$$$$
