
     RDKit          3D

 29 28  0  0  0  0  0  0  0  0999 V2000
   -8.3041    1.7415   -5.3354 C   0  0  0  0  0  0  0  0  0  0  0  0
   -7.6142    2.2270   -6.5685 C   0  0  0  0  0  0  0  0  0  0  0  0
   -8.2396    3.3659   -7.2626 C   0  0  0  0  0  0  0  0  0  0  0  0
   -7.3134    4.0747   -8.1849 C   0  0  0  0  0  0  0  0  0  0  0  0
   -7.9017    5.1155   -9.0909 C   0  0  0  0  0  0  0  0  0  0  0  0
   -8.8465    4.5907   -9.9644 F   0  0  0  0  0  0  0  0  0  0  0  0
   -8.3704    6.2365   -8.4919 F   0  0  0  0  0  0  0  0  0  0  0  0
   -6.5060    5.5741  -10.1747 S   0  0  0  0  0  0  0  0  0  0  0  0
   -5.3848    6.0938   -9.3414 O   0  0  0  0  0  0  0  0  0  0  0  0
   -6.0867    4.3009  -10.8452 O   0  0  0  0  0  0  0  0  0  0  0  0
   -7.0377    6.7148  -11.2707 O   0  0  0  0  0  0  0  0  0  0  0  0
   -6.2806    4.7135   -7.4974 F   0  0  0  0  0  0  0  0  0  0  0  0
   -6.6727    3.1644   -9.0496 F   0  0  0  0  0  0  0  0  0  0  0  0
   -9.3807    3.0942   -7.9738 F   0  0  0  0  0  0  0  0  0  0  0  0
   -8.6285    4.2960   -6.2900 F   0  0  0  0  0  0  0  0  0  0  0  0
   -6.4374    2.8037   -6.0068 F   0  0  0  0  0  0  0  0  0  0  0  0
   -7.0805    1.2450   -7.3695 F   0  0  0  0  0  0  0  0  0  0  0  0
   -7.7879    0.6333   -4.5609 C   0  0  0  0  0  0  0  0  0  0  0  0
   -8.4288    0.1585   -3.3264 C   0  0  0  0  0  0  0  0  0  0  0  0
   -7.8479   -1.0864   -2.7038 C   0  0  0  0  0  0  0  0  0  0  0  0
   -6.4972   -1.0792   -2.6419 F   0  0  0  0  0  0  0  0  0  0  0  0
   -8.3933   -1.3393   -1.4573 F   0  0  0  0  0  0  0  0  0  0  0  0
   -8.1915   -2.2201   -3.4555 F   0  0  0  0  0  0  0  0  0  0  0  0
   -8.1776    1.1644   -2.3687 F   0  0  0  0  0  0  0  0  0  0  0  0
   -9.8085    0.1130   -3.3576 F   0  0  0  0  0  0  0  0  0  0  0  0
   -7.8669   -0.4840   -5.4355 F   0  0  0  0  0  0  0  0  0  0  0  0
   -6.3970    0.6834   -4.3414 F   0  0  0  0  0  0  0  0  0  0  0  0
   -8.5699    2.8376   -4.5395 F   0  0  0  0  0  0  0  0  0  0  0  0
   -9.5872    1.3466   -5.7835 F   0  0  0  0  0  0  0  0  0  0  0  0
  1  2  1  0
  2  3  1  0
  3  4  1  0
  4  5  1  0
  5  6  1  0
  5  7  1  0
  5  8  1  0
  8  9  2  0
  8 10  2  0
  8 11  1  0
  4 12  1  0
  4 13  1  0
  3 14  1  0
  3 15  1  0
  2 16  1  0
  2 17  1  0
  1 18  1  0
 18 19  1  0
 19 20  1  0
 20 21  1  0
 20 22  1  0
 20 23  1  0
 19 24  1  0
 19 25  1  0
 18 26  1  0
 18 27  1  0
  1 28  1  0
  1 29  1  0
M  END
$$$$
