
     RDKit          3D

 29 28  0  0  0  0  0  0  0  0999 V2000
   -7.9695    5.5237   -8.5299 C   0  0  0  0  0  0  0  0  0  0  0  0
   -6.9760    4.8444   -9.4152 C   0  0  0  0  0  0  0  0  0  0  0  0
   -5.9889    5.7137  -10.0785 C   0  0  0  0  0  0  0  0  0  0  0  0
   -4.7571    4.9941  -10.4974 C   0  0  0  0  0  0  0  0  0  0  0  0
   -3.7355    5.7677  -11.2771 C   0  0  0  0  0  0  0  0  0  0  0  0
   -4.0760    5.9018  -12.6177 F   0  0  0  0  0  0  0  0  0  0  0  0
   -3.3586    6.9595  -10.7549 F   0  0  0  0  0  0  0  0  0  0  0  0
   -2.2867    4.6571  -11.2992 S   0  0  0  0  0  0  0  0  0  0  0  0
   -1.9266    4.2886   -9.9006 O   0  0  0  0  0  0  0  0  0  0  0  0
   -2.7326    3.4347  -12.0430 O   0  0  0  0  0  0  0  0  0  0  0  0
   -1.0308    5.4385  -12.0721 O   0  0  0  0  0  0  0  0  0  0  0  0
   -4.0715    4.4560   -9.4075 F   0  0  0  0  0  0  0  0  0  0  0  0
   -5.0744    3.8903  -11.3147 F   0  0  0  0  0  0  0  0  0  0  0  0
   -6.4318    6.4161  -11.1704 F   0  0  0  0  0  0  0  0  0  0  0  0
   -5.5908    6.6884   -9.1546 F   0  0  0  0  0  0  0  0  0  0  0  0
   -6.1899    4.1487   -8.4503 F   0  0  0  0  0  0  0  0  0  0  0  0
   -7.4709    3.8034  -10.1649 F   0  0  0  0  0  0  0  0  0  0  0  0
   -8.8413    4.7754   -7.6499 C   0  0  0  0  0  0  0  0  0  0  0  0
   -9.7914    5.4215   -6.7333 C   0  0  0  0  0  0  0  0  0  0  0  0
  -10.4481    4.5306   -5.7087 C   0  0  0  0  0  0  0  0  0  0  0  0
  -11.3059    3.6330   -6.2444 F   0  0  0  0  0  0  0  0  0  0  0  0
   -9.5155    3.8971   -4.9062 F   0  0  0  0  0  0  0  0  0  0  0  0
  -11.2045    5.2923   -4.8053 F   0  0  0  0  0  0  0  0  0  0  0  0
   -9.0137    6.3099   -5.9601 F   0  0  0  0  0  0  0  0  0  0  0  0
  -10.7058    6.2664   -7.3305 F   0  0  0  0  0  0  0  0  0  0  0  0
   -9.6713    4.0211   -8.5225 F   0  0  0  0  0  0  0  0  0  0  0  0
   -8.1978    3.7343   -6.9518 F   0  0  0  0  0  0  0  0  0  0  0  0
   -7.3147    6.5354   -7.8567 F   0  0  0  0  0  0  0  0  0  0  0  0
   -8.8157    6.2226   -9.4235 F   0  0  0  0  0  0  0  0  0  0  0  0
  1  2  1  0
  2  3  1  0
  3  4  1  0
  4  5  1  0
  5  6  1  0
  5  7  1  0
  5  8  1  0
  8  9  2  0
  8 10  2  0
  8 11  1  0
  4 12  1  0
  4 13  1  0
  3 14  1  0
  3 15  1  0
  2 16  1  0
  2 17  1  0
  1 18  1  0
 18 19  1  0
 19 20  1  0
 20 21  1  0
 20 22  1  0
 20 23  1  0
 19 24  1  0
 19 25  1  0
 18 26  1  0
 18 27  1  0
  1 28  1  0
  1 29  1  0
M  END
$$$$
