
     RDKit          3D

 29 28  0  0  0  0  0  0  0  0999 V2000
   -4.9640   -2.6822  -16.1068 C   0  0  0  0  0  0  0  0  0  0  0  0
   -5.5421   -1.4148  -16.6472 C   0  0  0  0  0  0  0  0  0  0  0  0
   -6.4008   -1.5427  -17.8373 C   0  0  0  0  0  0  0  0  0  0  0  0
   -7.2600   -0.3527  -18.0747 C   0  0  0  0  0  0  0  0  0  0  0  0
   -8.2910   -0.4494  -19.1601 C   0  0  0  0  0  0  0  0  0  0  0  0
   -7.7284   -0.6525  -20.4144 F   0  0  0  0  0  0  0  0  0  0  0  0
   -9.3101   -1.3153  -18.9439 F   0  0  0  0  0  0  0  0  0  0  0  0
   -8.9727    1.2418  -19.2512 S   0  0  0  0  0  0  0  0  0  0  0  0
  -10.0923    1.2696  -20.2347 O   0  0  0  0  0  0  0  0  0  0  0  0
   -9.5004    1.5334  -17.8791 O   0  0  0  0  0  0  0  0  0  0  0  0
   -7.7457    2.2858  -19.6865 O   0  0  0  0  0  0  0  0  0  0  0  0
   -7.9562    0.0253  -16.9259 F   0  0  0  0  0  0  0  0  0  0  0  0
   -6.4790    0.7693  -18.4182 F   0  0  0  0  0  0  0  0  0  0  0  0
   -5.7647   -1.8184  -19.0209 F   0  0  0  0  0  0  0  0  0  0  0  0
   -7.2635   -2.6258  -17.6257 F   0  0  0  0  0  0  0  0  0  0  0  0
   -6.4719   -1.0849  -15.6178 F   0  0  0  0  0  0  0  0  0  0  0  0
   -4.7037   -0.3255  -16.6162 F   0  0  0  0  0  0  0  0  0  0  0  0
   -4.2404   -2.7149  -14.8540 C   0  0  0  0  0  0  0  0  0  0  0  0
   -3.7900   -3.9661  -14.2279 C   0  0  0  0  0  0  0  0  0  0  0  0
   -3.2383   -3.8564  -12.8285 C   0  0  0  0  0  0  0  0  0  0  0  0
   -2.1017   -3.1280  -12.7518 F   0  0  0  0  0  0  0  0  0  0  0  0
   -4.1855   -3.3797  -11.9393 F   0  0  0  0  0  0  0  0  0  0  0  0
   -2.9155   -5.1255  -12.3248 F   0  0  0  0  0  0  0  0  0  0  0  0
   -4.9580   -4.7427  -14.0711 F   0  0  0  0  0  0  0  0  0  0  0  0
   -2.9992   -4.7723  -15.0225 F   0  0  0  0  0  0  0  0  0  0  0  0
   -3.0327   -2.0140  -15.1182 F   0  0  0  0  0  0  0  0  0  0  0  0
   -4.7924   -1.8959  -13.8492 F   0  0  0  0  0  0  0  0  0  0  0  0
   -5.9484   -3.6490  -16.1506 F   0  0  0  0  0  0  0  0  0  0  0  0
   -4.0503   -3.1035  -17.1021 F   0  0  0  0  0  0  0  0  0  0  0  0
  1  2  1  0
  2  3  1  0
  3  4  1  0
  4  5  1  0
  5  6  1  0
  5  7  1  0
  5  8  1  0
  8  9  2  0
  8 10  2  0
  8 11  1  0
  4 12  1  0
  4 13  1  0
  3 14  1  0
  3 15  1  0
  2 16  1  0
  2 17  1  0
  1 18  1  0
 18 19  1  0
 19 20  1  0
 20 21  1  0
 20 22  1  0
 20 23  1  0
 19 24  1  0
 19 25  1  0
 18 26  1  0
 18 27  1  0
  1 28  1  0
  1 29  1  0
M  END
$$$$
