
     RDKit          3D

 29 28  0  0  0  0  0  0  0  0999 V2000
   -8.4633    5.1768   -8.1395 C   0  0  0  0  0  0  0  0  0  0  0  0
   -7.0144    5.0419   -8.4786 C   0  0  0  0  0  0  0  0  0  0  0  0
   -6.6425    5.3101   -9.8785 C   0  0  0  0  0  0  0  0  0  0  0  0
   -5.1730    5.3346  -10.1036 C   0  0  0  0  0  0  0  0  0  0  0  0
   -4.6920    5.4736  -11.5176 C   0  0  0  0  0  0  0  0  0  0  0  0
   -5.1604    4.4586  -12.3432 F   0  0  0  0  0  0  0  0  0  0  0  0
   -4.8714    6.6855  -12.0958 F   0  0  0  0  0  0  0  0  0  0  0  0
   -2.9001    5.1477  -11.3915 S   0  0  0  0  0  0  0  0  0  0  0  0
   -2.3621    5.8161  -10.1727 O   0  0  0  0  0  0  0  0  0  0  0  0
   -2.7743    3.6612  -11.2475 O   0  0  0  0  0  0  0  0  0  0  0  0
   -2.1599    5.7087  -12.7780 O   0  0  0  0  0  0  0  0  0  0  0  0
   -4.5535    6.3627   -9.3918 F   0  0  0  0  0  0  0  0  0  0  0  0
   -4.5739    4.1483   -9.6339 F   0  0  0  0  0  0  0  0  0  0  0  0
   -7.1771    4.4708  -10.8226 F   0  0  0  0  0  0  0  0  0  0  0  0
   -7.1213    6.5842  -10.2098 F   0  0  0  0  0  0  0  0  0  0  0  0
   -6.4720    6.1632   -7.7847 F   0  0  0  0  0  0  0  0  0  0  0  0
   -6.3610    3.9996   -7.8645 F   0  0  0  0  0  0  0  0  0  0  0  0
   -8.9328    5.1230   -6.7716 C   0  0  0  0  0  0  0  0  0  0  0  0
  -10.3570    5.1972   -6.4159 C   0  0  0  0  0  0  0  0  0  0  0  0
  -10.7655    4.5160   -5.1337 C   0  0  0  0  0  0  0  0  0  0  0  0
  -10.0519    4.9178   -4.0578 F   0  0  0  0  0  0  0  0  0  0  0  0
  -12.1228    4.6424   -4.8953 F   0  0  0  0  0  0  0  0  0  0  0  0
  -10.5701    3.1298   -5.2278 F   0  0  0  0  0  0  0  0  0  0  0  0
  -10.6053    6.5640   -6.1666 F   0  0  0  0  0  0  0  0  0  0  0  0
  -11.2370    4.9155   -7.4419 F   0  0  0  0  0  0  0  0  0  0  0  0
   -8.5328    3.8419   -6.3045 F   0  0  0  0  0  0  0  0  0  0  0  0
   -8.2157    5.9498   -5.8844 F   0  0  0  0  0  0  0  0  0  0  0  0
   -8.9516    6.2856   -8.8012 F   0  0  0  0  0  0  0  0  0  0  0  0
   -9.0833    4.0973   -8.8128 F   0  0  0  0  0  0  0  0  0  0  0  0
  1  2  1  0
  2  3  1  0
  3  4  1  0
  4  5  1  0
  5  6  1  0
  5  7  1  0
  5  8  1  0
  8  9  2  0
  8 10  2  0
  8 11  1  0
  4 12  1  0
  4 13  1  0
  3 14  1  0
  3 15  1  0
  2 16  1  0
  2 17  1  0
  1 18  1  0
 18 19  1  0
 19 20  1  0
 20 21  1  0
 20 22  1  0
 20 23  1  0
 19 24  1  0
 19 25  1  0
 18 26  1  0
 18 27  1  0
  1 28  1  0
  1 29  1  0
M  END
$$$$
