
     RDKit          3D

 29 28  0  0  0  0  0  0  0  0999 V2000
   -6.7465   -1.1176  -17.4110 C   0  0  0  0  0  0  0  0  0  0  0  0
   -6.9171   -0.0010  -18.3891 C   0  0  0  0  0  0  0  0  0  0  0  0
   -8.2600    0.1572  -18.9735 C   0  0  0  0  0  0  0  0  0  0  0  0
   -8.2798    1.0296  -20.1774 C   0  0  0  0  0  0  0  0  0  0  0  0
   -9.4929    0.9664  -21.0575 C   0  0  0  0  0  0  0  0  0  0  0  0
   -9.6893   -0.2950  -21.6065 F   0  0  0  0  0  0  0  0  0  0  0  0
  -10.6441    1.4450  -20.5274 F   0  0  0  0  0  0  0  0  0  0  0  0
   -9.0349    2.0036  -22.4884 S   0  0  0  0  0  0  0  0  0  0  0  0
   -8.8145    3.4050  -22.0310 O   0  0  0  0  0  0  0  0  0  0  0  0
   -7.7469    1.4322  -22.9991 O   0  0  0  0  0  0  0  0  0  0  0  0
  -10.2555    1.9117  -23.6227 O   0  0  0  0  0  0  0  0  0  0  0  0
   -8.1227    2.3765  -19.8479 F   0  0  0  0  0  0  0  0  0  0  0  0
   -7.1989    0.7306  -21.0312 F   0  0  0  0  0  0  0  0  0  0  0  0
   -8.9195   -0.9985  -19.3070 F   0  0  0  0  0  0  0  0  0  0  0  0
   -9.0716    0.7767  -18.0145 F   0  0  0  0  0  0  0  0  0  0  0  0
   -6.8104    1.1289  -17.5260 F   0  0  0  0  0  0  0  0  0  0  0  0
   -5.8558    0.2042  -19.2388 F   0  0  0  0  0  0  0  0  0  0  0  0
   -5.4714   -1.3913  -16.7836 C   0  0  0  0  0  0  0  0  0  0  0  0
   -5.1785   -2.6569  -16.0960 C   0  0  0  0  0  0  0  0  0  0  0  0
   -3.8152   -2.7771  -15.4621 C   0  0  0  0  0  0  0  0  0  0  0  0
   -2.8007   -2.7585  -16.3558 F   0  0  0  0  0  0  0  0  0  0  0  0
   -3.6197   -1.8216  -14.4803 F   0  0  0  0  0  0  0  0  0  0  0  0
   -3.6973   -3.9936  -14.7731 F   0  0  0  0  0  0  0  0  0  0  0  0
   -6.0661   -2.6962  -14.9994 F   0  0  0  0  0  0  0  0  0  0  0  0
   -5.5150   -3.7995  -16.7944 F   0  0  0  0  0  0  0  0  0  0  0  0
   -4.5321   -1.3591  -17.8495 F   0  0  0  0  0  0  0  0  0  0  0  0
   -4.9843   -0.3365  -15.9866 F   0  0  0  0  0  0  0  0  0  0  0  0
   -7.7614   -1.0238  -16.4800 F   0  0  0  0  0  0  0  0  0  0  0  0
   -7.0842   -2.2805  -18.1436 F   0  0  0  0  0  0  0  0  0  0  0  0
  1  2  1  0
  2  3  1  0
  3  4  1  0
  4  5  1  0
  5  6  1  0
  5  7  1  0
  5  8  1  0
  8  9  2  0
  8 10  2  0
  8 11  1  0
  4 12  1  0
  4 13  1  0
  3 14  1  0
  3 15  1  0
  2 16  1  0
  2 17  1  0
  1 18  1  0
 18 19  1  0
 19 20  1  0
 20 21  1  0
 20 22  1  0
 20 23  1  0
 19 24  1  0
 19 25  1  0
 18 26  1  0
 18 27  1  0
  1 28  1  0
  1 29  1  0
M  END
$$$$
