
     RDKit          3D

 29 28  0  0  0  0  0  0  0  0999 V2000
   -0.2160    5.6099  -13.8172 C   0  0  0  0  0  0  0  0  0  0  0  0
    0.0407    6.7265  -14.7761 C   0  0  0  0  0  0  0  0  0  0  0  0
    0.9327    6.4240  -15.9088 C   0  0  0  0  0  0  0  0  0  0  0  0
    1.0932    7.5615  -16.8528 C   0  0  0  0  0  0  0  0  0  0  0  0
    2.2564    7.5164  -17.7988 C   0  0  0  0  0  0  0  0  0  0  0  0
    3.4792    7.4726  -17.1400 F   0  0  0  0  0  0  0  0  0  0  0  0
    2.2010    6.5770  -18.7733 F   0  0  0  0  0  0  0  0  0  0  0  0
    2.2347    9.1670  -18.5787 S   0  0  0  0  0  0  0  0  0  0  0  0
    0.9514    9.3474  -19.3150 O   0  0  0  0  0  0  0  0  0  0  0  0
    2.3065   10.1447  -17.4450 O   0  0  0  0  0  0  0  0  0  0  0  0
    3.5508    9.2899  -19.5975 O   0  0  0  0  0  0  0  0  0  0  0  0
   -0.0366    7.7388  -17.6525 F   0  0  0  0  0  0  0  0  0  0  0  0
    1.2439    8.7760  -16.1534 F   0  0  0  0  0  0  0  0  0  0  0  0
    2.1938    5.9874  -15.5917 F   0  0  0  0  0  0  0  0  0  0  0  0
    0.3559    5.3755  -16.6369 F   0  0  0  0  0  0  0  0  0  0  0  0
   -1.2365    6.8428  -15.3990 F   0  0  0  0  0  0  0  0  0  0  0  0
    0.1805    7.9704  -14.2071 F   0  0  0  0  0  0  0  0  0  0  0  0
   -1.2217    5.7122  -12.7817 C   0  0  0  0  0  0  0  0  0  0  0  0
   -1.5024    4.6238  -11.8347 C   0  0  0  0  0  0  0  0  0  0  0  0
   -2.4489    4.9436  -10.7049 C   0  0  0  0  0  0  0  0  0  0  0  0
   -1.9678    5.8674   -9.8426 F   0  0  0  0  0  0  0  0  0  0  0  0
   -3.6983    5.3137  -11.1711 F   0  0  0  0  0  0  0  0  0  0  0  0
   -2.7046    3.7979   -9.9365 F   0  0  0  0  0  0  0  0  0  0  0  0
   -2.1908    3.6476  -12.5866 F   0  0  0  0  0  0  0  0  0  0  0  0
   -0.3951    3.9307  -11.3873 F   0  0  0  0  0  0  0  0  0  0  0  0
   -0.7765    6.7769  -11.9523 F   0  0  0  0  0  0  0  0  0  0  0  0
   -2.4524    6.2359  -13.2248 F   0  0  0  0  0  0  0  0  0  0  0  0
   -0.3559    4.4474  -14.5485 F   0  0  0  0  0  0  0  0  0  0  0  0
    1.0196    5.4280  -13.1513 F   0  0  0  0  0  0  0  0  0  0  0  0
  1  2  1  0
  2  3  1  0
  3  4  1  0
  4  5  1  0
  5  6  1  0
  5  7  1  0
  5  8  1  0
  8  9  2  0
  8 10  2  0
  8 11  1  0
  4 12  1  0
  4 13  1  0
  3 14  1  0
  3 15  1  0
  2 16  1  0
  2 17  1  0
  1 18  1  0
 18 19  1  0
 19 20  1  0
 20 21  1  0
 20 22  1  0
 20 23  1  0
 19 24  1  0
 19 25  1  0
 18 26  1  0
 18 27  1  0
  1 28  1  0
  1 29  1  0
M  END
$$$$
