
     RDKit          3D

  4  3  0  0  0  0  0  0  0  0999 V2000
  -14.4579   -8.0976   -6.8075 C   0  0  0  0  0  0  0  0  0  0  0  0
  -14.9595   -8.9066   -8.0015 C   0  0  0  0  0  0  0  0  0  0  0  0
  -14.7096   -7.8805   -9.4572 Cl  0  0  0  0  0  0  0  0  0  0  0  0
  -14.9085   -9.0709   -5.3731 Cl  0  0  0  0  0  0  0  0  0  0  0  0
  1  2  1  0
  2  3  1  0
  1  4  1  0
M  END
$$$$
