
     RDKit          3D

  4  3  0  0  0  0  0  0  0  0999 V2000
   12.4389    0.9774   -5.1334 C   0  0  0  0  0  0  0  0  0  0  0  0
   12.6552    2.4793   -4.9630 C   0  0  0  0  0  0  0  0  0  0  0  0
   14.1609    2.6743   -3.9990 Cl  0  0  0  0  0  0  0  0  0  0  0  0
   10.9378    0.8378   -6.1004 Cl  0  0  0  0  0  0  0  0  0  0  0  0
  1  2  1  0
  2  3  1  0
  1  4  1  0
M  END
$$$$
