
     RDKit          3D

  4  3  0  0  0  0  0  0  0  0999 V2000
    2.4931   -4.4261    2.2484 C   0  0  0  0  0  0  0  0  0  0  0  0
    2.3064   -5.0763    0.8794 C   0  0  0  0  0  0  0  0  0  0  0  0
    0.8955   -4.2645    0.1145 Cl  0  0  0  0  0  0  0  0  0  0  0  0
    4.0874   -5.0098    2.8189 Cl  0  0  0  0  0  0  0  0  0  0  0  0
  1  2  1  0
  2  3  1  0
  1  4  1  0
M  END
$$$$
