
     RDKit          3D

  4  3  0  0  0  0  0  0  0  0999 V2000
  -13.9151    5.6852   -9.6964 C   0  0  0  0  0  0  0  0  0  0  0  0
  -13.7105    6.9583  -10.5143 C   0  0  0  0  0  0  0  0  0  0  0  0
  -12.8727    6.4661  -12.0278 Cl  0  0  0  0  0  0  0  0  0  0  0  0
  -14.0389    6.2458   -7.9999 Cl  0  0  0  0  0  0  0  0  0  0  0  0
  1  2  1  0
  2  3  1  0
  1  4  1  0
M  END
$$$$
