
     RDKit          3D

  6  5  0  0  0  0  0  0  0  0999 V2000
   12.4757  -44.4946   19.6167 C   0  0  0  0  0  0  0  0  0  0  0  0
   13.1269  -43.7175   20.7514 C   0  0  0  0  0  0  0  0  0  0  0  0
   13.9799  -42.6598   20.0359 C   0  0  0  0  0  0  0  0  0  0  0  0
   15.7114  -42.7817   20.4572 S   0  0  0  0  0  0  0  0  0  0  0  0
   11.8839  -42.9782   21.8143 S   0  0  0  0  0  0  0  0  0  0  0  0
   11.4611  -43.6985   19.0922 O   0  0  0  0  0  0  0  0  0  0  0  0
  1  2  1  0
  2  3  1  0
  3  4  1  0
  2  5  1  0
  1  6  1  0
M  END
$$$$
