
     RDKit          3D

  6  5  0  0  0  0  0  0  0  0999 V2000
   16.1501  -40.9010   17.4339 C   0  0  0  0  0  0  0  0  0  0  0  0
   17.3432  -40.6024   16.5380 C   0  0  0  0  0  0  0  0  0  0  0  0
   18.2621  -39.7419   17.4174 C   0  0  0  0  0  0  0  0  0  0  0  0
   17.9179  -37.9964   17.2591 S   0  0  0  0  0  0  0  0  0  0  0  0
   18.1405  -42.1212   16.0096 S   0  0  0  0  0  0  0  0  0  0  0  0
   16.5519  -41.8581   18.3615 O   0  0  0  0  0  0  0  0  0  0  0  0
  1  2  1  0
  2  3  1  0
  3  4  1  0
  2  5  1  0
  1  6  1  0
M  END
$$$$
