
     RDKit          3D

  6  5  0  0  0  0  0  0  0  0999 V2000
   15.6416  -52.1270   30.0412 C   0  0  0  0  0  0  0  0  0  0  0  0
   14.5017  -53.0096   29.5542 C   0  0  0  0  0  0  0  0  0  0  0  0
   15.0478  -53.6456   28.2675 C   0  0  0  0  0  0  0  0  0  0  0  0
   13.8031  -54.5737   27.3846 S   0  0  0  0  0  0  0  0  0  0  0  0
   14.0753  -54.2404   30.7890 S   0  0  0  0  0  0  0  0  0  0  0  0
   15.1027  -51.1972   30.9262 O   0  0  0  0  0  0  0  0  0  0  0  0
  1  2  1  0
  2  3  1  0
  3  4  1  0
  2  5  1  0
  1  6  1  0
M  END
$$$$
