
     RDKit          3D

  6  5  0  0  0  0  0  0  0  0999 V2000
   -0.7518  -26.5615   -4.7851 C   0  0  0  0  0  0  0  0  0  0  0  0
   -1.2341  -27.5092   -3.6966 C   0  0  0  0  0  0  0  0  0  0  0  0
   -0.1942  -28.6392   -3.7002 C   0  0  0  0  0  0  0  0  0  0  0  0
   -0.5663  -29.9117   -2.5033 S   0  0  0  0  0  0  0  0  0  0  0  0
   -1.3170  -26.6713   -2.1116 S   0  0  0  0  0  0  0  0  0  0  0  0
   -1.3137  -25.3131   -4.5326 O   0  0  0  0  0  0  0  0  0  0  0  0
  1  2  1  0
  2  3  1  0
  3  4  1  0
  2  5  1  0
  1  6  1  0
M  END
$$$$
