
     RDKit          3D

  6  5  0  0  0  0  0  0  0  0999 V2000
   21.8478  -53.4452   20.9117 C   0  0  0  0  0  0  0  0  0  0  0  0
   21.9259  -53.6782   19.4100 C   0  0  0  0  0  0  0  0  0  0  0  0
   20.6624  -52.9984   18.8623 C   0  0  0  0  0  0  0  0  0  0  0  0
   19.6454  -54.1162   17.9101 S   0  0  0  0  0  0  0  0  0  0  0  0
   23.4263  -52.9652   18.7306 S   0  0  0  0  0  0  0  0  0  0  0  0
   20.5852  -52.9292   21.1904 O   0  0  0  0  0  0  0  0  0  0  0  0
  1  2  1  0
  2  3  1  0
  3  4  1  0
  2  5  1  0
  1  6  1  0
M  END
$$$$
