
     RDKit          3D

  6  5  0  0  0  0  0  0  0  0999 V2000
   19.3546  -50.9289   19.0120 C   0  0  0  0  0  0  0  0  0  0  0  0
   20.8191  -50.9851   18.6027 C   0  0  0  0  0  0  0  0  0  0  0  0
   20.8646  -52.0885   17.5356 C   0  0  0  0  0  0  0  0  0  0  0  0
   20.9052  -53.7254   18.2491 S   0  0  0  0  0  0  0  0  0  0  0  0
   21.3636  -49.4000   17.9606 S   0  0  0  0  0  0  0  0  0  0  0  0
   18.6673  -50.2413   18.0155 O   0  0  0  0  0  0  0  0  0  0  0  0
  1  2  1  0
  2  3  1  0
  3  4  1  0
  2  5  1  0
  1  6  1  0
M  END
$$$$
