
     RDKit          3D

  6  5  0  0  0  0  0  0  0  0999 V2000
    7.5899  -46.1050    3.3458 C   0  0  0  0  0  0  0  0  0  0  0  0
    8.1670  -46.7981    4.5713 C   0  0  0  0  0  0  0  0  0  0  0  0
    8.5284  -48.2032    4.0680 C   0  0  0  0  0  0  0  0  0  0  0  0
    8.7707  -49.3642    5.4035 S   0  0  0  0  0  0  0  0  0  0  0  0
    9.5999  -45.9120    5.1902 S   0  0  0  0  0  0  0  0  0  0  0  0
    7.0615  -44.8867    3.7636 O   0  0  0  0  0  0  0  0  0  0  0  0
  1  2  1  0
  2  3  1  0
  3  4  1  0
  2  5  1  0
  1  6  1  0
M  END
$$$$
