
     RDKit          3D

  6  5  0  0  0  0  0  0  0  0999 V2000
   13.7073  -45.9776    9.6770 C   0  0  0  0  0  0  0  0  0  0  0  0
   14.8640  -45.6260    8.7530 C   0  0  0  0  0  0  0  0  0  0  0  0
   14.1788  -45.1776    7.4538 C   0  0  0  0  0  0  0  0  0  0  0  0
   15.3351  -44.9786    6.1071 S   0  0  0  0  0  0  0  0  0  0  0  0
   15.8784  -44.3281    9.4656 S   0  0  0  0  0  0  0  0  0  0  0  0
   14.2504  -46.4951   10.8497 O   0  0  0  0  0  0  0  0  0  0  0  0
  1  2  1  0
  2  3  1  0
  3  4  1  0
  2  5  1  0
  1  6  1  0
M  END
$$$$
