
     RDKit          3D

  6  5  0  0  0  0  0  0  0  0999 V2000
   10.0870  -49.9548   30.2014 C   0  0  0  0  0  0  0  0  0  0  0  0
   11.3759  -50.5895   30.7025 C   0  0  0  0  0  0  0  0  0  0  0  0
   12.2309  -50.7438   29.4363 C   0  0  0  0  0  0  0  0  0  0  0  0
   13.7406  -51.6491   29.7394 S   0  0  0  0  0  0  0  0  0  0  0  0
   12.1666  -49.5452   31.9295 S   0  0  0  0  0  0  0  0  0  0  0  0
    9.2548  -49.7713   31.3023 O   0  0  0  0  0  0  0  0  0  0  0  0
  1  2  1  0
  2  3  1  0
  3  4  1  0
  2  5  1  0
  1  6  1  0
M  END
$$$$
