
     RDKit          3D

 29 28  0  0  0  0  0  0  0  0999 V2000
   10.4887    4.7647   -8.0729 C   0  0  0  0  0  0  0  0  0  0  0  0
    9.6658    3.5754   -8.4393 C   0  0  0  0  0  0  0  0  0  0  0  0
    8.8550    3.6599   -9.6746 C   0  0  0  0  0  0  0  0  0  0  0  0
    8.3975    2.3209  -10.1441 C   0  0  0  0  0  0  0  0  0  0  0  0
    7.5451    2.1424  -11.3182 C   0  0  0  0  0  0  0  0  0  0  0  0
    6.2286    2.5231  -11.2212 F   0  0  0  0  0  0  0  0  0  0  0  0
    8.0523    3.0607  -12.2964 F   0  0  0  0  0  0  0  0  0  0  0  0
    7.6951    0.5331  -12.0802 S   0  0  0  0  0  0  0  0  0  0  0  0
    7.2715   -0.5199  -11.1044 O   0  0  0  0  0  0  0  0  0  0  0  0
    6.8393    0.5255  -13.3084 O   0  0  0  0  0  0  0  0  0  0  0  0
    9.3023    0.2775  -12.5629 O   0  0  0  0  0  0  0  0  0  0  0  0
    9.5370    1.4891  -10.3618 F   0  0  0  0  0  0  0  0  0  0  0  0
    7.7592    1.6314   -9.0869 F   0  0  0  0  0  0  0  0  0  0  0  0
    9.5152    4.3021  -10.7155 F   0  0  0  0  0  0  0  0  0  0  0  0
    7.6492    4.3853   -9.4947 F   0  0  0  0  0  0  0  0  0  0  0  0
    8.9075    3.0435   -7.4428 F   0  0  0  0  0  0  0  0  0  0  0  0
   10.6471    2.5775   -8.7024 F   0  0  0  0  0  0  0  0  0  0  0  0
   11.3563    4.7200   -6.8905 C   0  0  0  0  0  0  0  0  0  0  0  0
   12.3036    5.8272   -6.6317 C   0  0  0  0  0  0  0  0  0  0  0  0
   12.9604    5.8706   -5.2963 C   0  0  0  0  0  0  0  0  0  0  0  0
   13.8825    6.8689   -5.1249 F   0  0  0  0  0  0  0  0  0  0  0  0
   12.0551    5.8616   -4.2503 F   0  0  0  0  0  0  0  0  0  0  0  0
   13.6906    4.6799   -5.1565 F   0  0  0  0  0  0  0  0  0  0  0  0
   11.8103    7.0967   -6.8681 F   0  0  0  0  0  0  0  0  0  0  0  0
   13.3374    5.6633   -7.5786 F   0  0  0  0  0  0  0  0  0  0  0  0
   12.0687    3.5168   -6.7836 F   0  0  0  0  0  0  0  0  0  0  0  0
   10.4827    4.6693   -5.7738 F   0  0  0  0  0  0  0  0  0  0  0  0
   11.1534    5.1899   -9.2254 F   0  0  0  0  0  0  0  0  0  0  0  0
    9.5466    5.8061   -7.8456 F   0  0  0  0  0  0  0  0  0  0  0  0
  1  2  1  0
  2  3  1  0
  3  4  1  0
  4  5  1  0
  5  6  1  0
  5  7  1  0
  5  8  1  0
  8  9  2  0
  8 10  2  0
  8 11  1  0
  4 12  1  0
  4 13  1  0
  3 14  1  0
  3 15  1  0
  2 16  1  0
  2 17  1  0
  1 18  1  0
 18 19  1  0
 19 20  1  0
 20 21  1  0
 20 22  1  0
 20 23  1  0
 19 24  1  0
 19 25  1  0
 18 26  1  0
 18 27  1  0
  1 28  1  0
  1 29  1  0
M  END
$$$$
