
     RDKit          3D

 29 28  0  0  0  0  0  0  0  0999 V2000
    4.2398   -1.8224  -12.2856 C   0  0  0  0  0  0  0  0  0  0  0  0
    5.6774   -1.4922  -12.5098 C   0  0  0  0  0  0  0  0  0  0  0  0
    6.3937   -2.2415  -13.5662 C   0  0  0  0  0  0  0  0  0  0  0  0
    7.7657   -1.7099  -13.8060 C   0  0  0  0  0  0  0  0  0  0  0  0
    8.7644   -2.4247  -14.5988 C   0  0  0  0  0  0  0  0  0  0  0  0
    9.0025   -3.7434  -14.2959 F   0  0  0  0  0  0  0  0  0  0  0  0
    8.2062   -2.5150  -15.9171 F   0  0  0  0  0  0  0  0  0  0  0  0
   10.2948   -1.5267  -14.8104 S   0  0  0  0  0  0  0  0  0  0  0  0
   11.1427   -2.2232  -15.8283 O   0  0  0  0  0  0  0  0  0  0  0  0
    9.9537   -0.1325  -15.2352 O   0  0  0  0  0  0  0  0  0  0  0  0
   11.1123   -1.4342  -13.3255 O   0  0  0  0  0  0  0  0  0  0  0  0
    7.6667   -0.4099  -14.3874 F   0  0  0  0  0  0  0  0  0  0  0  0
    8.3876   -1.4061  -12.5725 F   0  0  0  0  0  0  0  0  0  0  0  0
    5.7045   -2.2734  -14.7728 F   0  0  0  0  0  0  0  0  0  0  0  0
    6.6126   -3.6013  -13.2265 F   0  0  0  0  0  0  0  0  0  0  0  0
    6.4575   -1.4334  -11.3968 F   0  0  0  0  0  0  0  0  0  0  0  0
    5.6271   -0.1466  -12.9730 F   0  0  0  0  0  0  0  0  0  0  0  0
    3.4538   -1.0536  -11.3140 C   0  0  0  0  0  0  0  0  0  0  0  0
    2.0475   -1.4281  -11.0455 C   0  0  0  0  0  0  0  0  0  0  0  0
    1.3490   -0.7224   -9.9361 C   0  0  0  0  0  0  0  0  0  0  0  0
    1.9318   -0.8413   -8.7022 F   0  0  0  0  0  0  0  0  0  0  0  0
    1.0870    0.6053  -10.2230 F   0  0  0  0  0  0  0  0  0  0  0  0
    0.0870   -1.3209   -9.7959 F   0  0  0  0  0  0  0  0  0  0  0  0
    1.8194   -2.7784  -10.8570 F   0  0  0  0  0  0  0  0  0  0  0  0
    1.3437   -1.1080  -12.2263 F   0  0  0  0  0  0  0  0  0  0  0  0
    3.4873    0.3270  -11.5577 F   0  0  0  0  0  0  0  0  0  0  0  0
    4.1440   -1.1729  -10.0802 F   0  0  0  0  0  0  0  0  0  0  0  0
    3.6271   -1.9139  -13.5374 F   0  0  0  0  0  0  0  0  0  0  0  0
    4.2400   -3.1705  -11.8314 F   0  0  0  0  0  0  0  0  0  0  0  0
  1  2  1  0
  2  3  1  0
  3  4  1  0
  4  5  1  0
  5  6  1  0
  5  7  1  0
  5  8  1  0
  8  9  2  0
  8 10  2  0
  8 11  1  0
  4 12  1  0
  4 13  1  0
  3 14  1  0
  3 15  1  0
  2 16  1  0
  2 17  1  0
  1 18  1  0
 18 19  1  0
 19 20  1  0
 20 21  1  0
 20 22  1  0
 20 23  1  0
 19 24  1  0
 19 25  1  0
 18 26  1  0
 18 27  1  0
  1 28  1  0
  1 29  1  0
M  END
$$$$
