
     RDKit          3D

 29 28  0  0  0  0  0  0  0  0999 V2000
    2.8614   -0.6910  -10.7169 C   0  0  0  0  0  0  0  0  0  0  0  0
    1.7419   -1.4585  -11.3363 C   0  0  0  0  0  0  0  0  0  0  0  0
    0.5451   -1.7128  -10.5035 C   0  0  0  0  0  0  0  0  0  0  0  0
   -0.4759   -2.5334  -11.2155 C   0  0  0  0  0  0  0  0  0  0  0  0
   -1.4284   -3.3938  -10.5158 C   0  0  0  0  0  0  0  0  0  0  0  0
   -0.9315   -4.3030   -9.6136 F   0  0  0  0  0  0  0  0  0  0  0  0
   -2.1828   -2.5135   -9.6712 F   0  0  0  0  0  0  0  0  0  0  0  0
   -2.6411   -4.1492  -11.5889 S   0  0  0  0  0  0  0  0  0  0  0  0
   -3.9268   -4.3210  -10.8420 O   0  0  0  0  0  0  0  0  0  0  0  0
   -2.8100   -3.2647  -12.7847 O   0  0  0  0  0  0  0  0  0  0  0  0
   -2.0675   -5.6527  -12.1293 O   0  0  0  0  0  0  0  0  0  0  0  0
   -1.2621   -1.6802  -12.0472 F   0  0  0  0  0  0  0  0  0  0  0  0
    0.1520   -3.3497  -12.1850 F   0  0  0  0  0  0  0  0  0  0  0  0
   -0.0543   -0.5467  -10.0425 F   0  0  0  0  0  0  0  0  0  0  0  0
    0.8340   -2.4688   -9.3385 F   0  0  0  0  0  0  0  0  0  0  0  0
    2.0886   -2.6048  -11.9819 F   0  0  0  0  0  0  0  0  0  0  0  0
    1.2982   -0.5923  -12.3759 F   0  0  0  0  0  0  0  0  0  0  0  0
    4.1725   -0.6475  -11.3743 C   0  0  0  0  0  0  0  0  0  0  0  0
    5.3542   -0.1641  -10.6260 C   0  0  0  0  0  0  0  0  0  0  0  0
    6.6771   -0.2473  -11.3038 C   0  0  0  0  0  0  0  0  0  0  0  0
    6.8082    0.5118  -12.4365 F   0  0  0  0  0  0  0  0  0  0  0  0
    7.7376   -0.0231  -10.4443 F   0  0  0  0  0  0  0  0  0  0  0  0
    6.8351   -1.5723  -11.7397 F   0  0  0  0  0  0  0  0  0  0  0  0
    5.5228   -0.7103   -9.3674 F   0  0  0  0  0  0  0  0  0  0  0  0
    5.1127    1.2066  -10.3915 F   0  0  0  0  0  0  0  0  0  0  0  0
    4.1426    0.0263  -12.6038 F   0  0  0  0  0  0  0  0  0  0  0  0
    4.4569   -1.9845  -11.7544 F   0  0  0  0  0  0  0  0  0  0  0  0
    2.3727    0.5742  -10.3835 F   0  0  0  0  0  0  0  0  0  0  0  0
    3.0643   -1.2994   -9.4471 F   0  0  0  0  0  0  0  0  0  0  0  0
  1  2  1  0
  2  3  1  0
  3  4  1  0
  4  5  1  0
  5  6  1  0
  5  7  1  0
  5  8  1  0
  8  9  2  0
  8 10  2  0
  8 11  1  0
  4 12  1  0
  4 13  1  0
  3 14  1  0
  3 15  1  0
  2 16  1  0
  2 17  1  0
  1 18  1  0
 18 19  1  0
 19 20  1  0
 20 21  1  0
 20 22  1  0
 20 23  1  0
 19 24  1  0
 19 25  1  0
 18 26  1  0
 18 27  1  0
  1 28  1  0
  1 29  1  0
M  END
$$$$
