
     RDKit          3D

 29 28  0  0  0  0  0  0  0  0999 V2000
    6.1524    0.5445  -11.1872 C   0  0  0  0  0  0  0  0  0  0  0  0
    7.5040    0.9836  -10.7330 C   0  0  0  0  0  0  0  0  0  0  0  0
    7.8402    2.4179  -10.8758 C   0  0  0  0  0  0  0  0  0  0  0  0
    9.2789    2.6925  -10.5977 C   0  0  0  0  0  0  0  0  0  0  0  0
    9.9393    3.9341  -10.9964 C   0  0  0  0  0  0  0  0  0  0  0  0
    9.6878    4.4206  -12.2564 F   0  0  0  0  0  0  0  0  0  0  0  0
    9.3676    4.9510  -10.1618 F   0  0  0  0  0  0  0  0  0  0  0  0
   11.6879    3.9708  -10.6298 S   0  0  0  0  0  0  0  0  0  0  0  0
   12.3973    2.9747  -11.4928 O   0  0  0  0  0  0  0  0  0  0  0  0
   12.1788    5.3636  -10.8745 O   0  0  0  0  0  0  0  0  0  0  0  0
   11.9348    3.6116   -8.9892 O   0  0  0  0  0  0  0  0  0  0  0  0
    9.5163    2.5594   -9.1964 F   0  0  0  0  0  0  0  0  0  0  0  0
   10.0775    1.6419  -11.1067 F   0  0  0  0  0  0  0  0  0  0  0  0
    7.0599    3.2417  -10.0731 F   0  0  0  0  0  0  0  0  0  0  0  0
    7.6532    2.8997  -12.1969 F   0  0  0  0  0  0  0  0  0  0  0  0
    8.5530    0.2337  -11.1668 F   0  0  0  0  0  0  0  0  0  0  0  0
    7.4614    0.7464   -9.3295 F   0  0  0  0  0  0  0  0  0  0  0  0
    5.6700   -0.8017  -10.8588 C   0  0  0  0  0  0  0  0  0  0  0  0
    4.3480   -1.2490  -11.3511 C   0  0  0  0  0  0  0  0  0  0  0  0
    4.1618   -2.7067  -11.5902 C   0  0  0  0  0  0  0  0  0  0  0  0
    4.3754   -3.5143  -10.5047 F   0  0  0  0  0  0  0  0  0  0  0  0
    2.9488   -3.0042  -12.1850 F   0  0  0  0  0  0  0  0  0  0  0  0
    5.1323   -3.0988  -12.5256 F   0  0  0  0  0  0  0  0  0  0  0  0
    3.8877   -0.6034  -12.4834 F   0  0  0  0  0  0  0  0  0  0  0  0
    3.4320   -0.8917  -10.3384 F   0  0  0  0  0  0  0  0  0  0  0  0
    5.7297   -1.0812   -9.4860 F   0  0  0  0  0  0  0  0  0  0  0  0
    6.6259   -1.6968  -11.4047 F   0  0  0  0  0  0  0  0  0  0  0  0
    5.2451    1.5505  -10.8475 F   0  0  0  0  0  0  0  0  0  0  0  0
    6.1994    0.6236  -12.6068 F   0  0  0  0  0  0  0  0  0  0  0  0
  1  2  1  0
  2  3  1  0
  3  4  1  0
  4  5  1  0
  5  6  1  0
  5  7  1  0
  5  8  1  0
  8  9  2  0
  8 10  2  0
  8 11  1  0
  4 12  1  0
  4 13  1  0
  3 14  1  0
  3 15  1  0
  2 16  1  0
  2 17  1  0
  1 18  1  0
 18 19  1  0
 19 20  1  0
 20 21  1  0
 20 22  1  0
 20 23  1  0
 19 24  1  0
 19 25  1  0
 18 26  1  0
 18 27  1  0
  1 28  1  0
  1 29  1  0
M  END
$$$$
