
     RDKit          3D

 25 24  0  0  0  0  0  0  0  0999 V2000
   13.6202    7.6239    5.0789 C   0  0  0  0  0  0  0  0  0  0  0  0
   14.6898    7.0330    5.4324 O   0  0  0  0  0  0  0  0  0  0  0  0
   12.3118    6.8788    5.2562 C   0  0  0  0  0  0  0  0  0  0  0  0
   12.2899    5.8290    4.1969 C   0  0  0  0  0  0  0  0  0  0  0  0
   11.1395    4.9071    4.1708 C   0  0  0  0  0  0  0  0  0  0  0  0
   11.1963    3.7251    3.2818 C   0  0  0  0  0  0  0  0  0  0  0  0
    9.7984    3.0750    3.3571 C   0  0  0  0  0  0  0  0  0  0  0  0
    9.5471    2.2479    2.1155 C   0  0  0  0  0  0  0  0  0  0  0  0
    8.1462    1.6411    2.2225 C   0  0  0  0  0  0  0  0  0  0  0  0
    8.1320    0.4681    2.9209 F   0  0  0  0  0  0  0  0  0  0  0  0
    7.2739    2.5214    2.8289 F   0  0  0  0  0  0  0  0  0  0  0  0
    7.6972    1.4509    0.9262 F   0  0  0  0  0  0  0  0  0  0  0  0
    9.5152    3.0700    1.0040 F   0  0  0  0  0  0  0  0  0  0  0  0
   10.4329    1.2289    1.9669 F   0  0  0  0  0  0  0  0  0  0  0  0
    9.6974    2.2397    4.4505 F   0  0  0  0  0  0  0  0  0  0  0  0
    8.8313    4.0517    3.4850 F   0  0  0  0  0  0  0  0  0  0  0  0
   11.2597    4.1576    1.9463 F   0  0  0  0  0  0  0  0  0  0  0  0
   12.1518    2.7993    3.5551 F   0  0  0  0  0  0  0  0  0  0  0  0
   10.9240    4.4705    5.4837 F   0  0  0  0  0  0  0  0  0  0  0  0
    9.9833    5.6140    3.8219 F   0  0  0  0  0  0  0  0  0  0  0  0
   13.4249    5.0343    4.4364 F   0  0  0  0  0  0  0  0  0  0  0  0
   12.5228    6.3757    2.9428 F   0  0  0  0  0  0  0  0  0  0  0  0
   11.3087    7.8229    5.1499 F   0  0  0  0  0  0  0  0  0  0  0  0
   12.3653    6.2862    6.5036 F   0  0  0  0  0  0  0  0  0  0  0  0
   13.6482    8.9066    4.5490 O   0  0  0  0  0  0  0  0  0  0  0  0
  1  2  2  0
  1  3  1  0
  3  4  1  0
  4  5  1  0
  5  6  1  0
  6  7  1  0
  7  8  1  0
  8  9  1  0
  9 10  1  0
  9 11  1  0
  9 12  1  0
  8 13  1  0
  8 14  1  0
  7 15  1  0
  7 16  1  0
  6 17  1  0
  6 18  1  0
  5 19  1  0
  5 20  1  0
  4 21  1  0
  4 22  1  0
  3 23  1  0
  3 24  1  0
  1 25  1  0
M  END
$$$$
