
     RDKit          3D

 25 24  0  0  0  0  0  0  0  0999 V2000
   -3.9355   -5.6288   13.8137 C   0  0  0  0  0  0  0  0  0  0  0  0
   -2.6820   -5.7306   14.0047 O   0  0  0  0  0  0  0  0  0  0  0  0
   -4.4401   -5.7112   12.3864 C   0  0  0  0  0  0  0  0  0  0  0  0
   -4.4076   -4.3169   11.8579 C   0  0  0  0  0  0  0  0  0  0  0  0
   -4.6757   -4.1233   10.4210 C   0  0  0  0  0  0  0  0  0  0  0  0
   -4.7115   -2.7444    9.8844 C   0  0  0  0  0  0  0  0  0  0  0  0
   -5.1941   -2.8741    8.4240 C   0  0  0  0  0  0  0  0  0  0  0  0
   -5.5277   -1.5072    7.8681 C   0  0  0  0  0  0  0  0  0  0  0  0
   -4.3661   -1.0577    6.9789 C   0  0  0  0  0  0  0  0  0  0  0  0
   -4.7709   -0.6953    5.7265 F   0  0  0  0  0  0  0  0  0  0  0  0
   -3.6955    0.0062    7.5464 F   0  0  0  0  0  0  0  0  0  0  0  0
   -3.4763   -2.1175    6.9242 F   0  0  0  0  0  0  0  0  0  0  0  0
   -6.6259   -1.5970    7.0326 F   0  0  0  0  0  0  0  0  0  0  0  0
   -5.7014   -0.5681    8.8341 F   0  0  0  0  0  0  0  0  0  0  0  0
   -4.2159   -3.4294    7.6251 F   0  0  0  0  0  0  0  0  0  0  0  0
   -6.3006   -3.6974    8.3653 F   0  0  0  0  0  0  0  0  0  0  0  0
   -5.7658   -2.0422   10.4925 F   0  0  0  0  0  0  0  0  0  0  0  0
   -3.5502   -2.0412    9.9266 F   0  0  0  0  0  0  0  0  0  0  0  0
   -3.7131   -4.8545    9.7141 F   0  0  0  0  0  0  0  0  0  0  0  0
   -5.9020   -4.7118   10.0920 F   0  0  0  0  0  0  0  0  0  0  0  0
   -3.0940   -3.8659   12.0767 F   0  0  0  0  0  0  0  0  0  0  0  0
   -5.1861   -3.4680   12.6319 F   0  0  0  0  0  0  0  0  0  0  0  0
   -5.7012   -6.2718   12.4510 F   0  0  0  0  0  0  0  0  0  0  0  0
   -3.5353   -6.4961   11.6967 F   0  0  0  0  0  0  0  0  0  0  0  0
   -4.8127   -5.4484   14.8744 O   0  0  0  0  0  0  0  0  0  0  0  0
  1  2  2  0
  1  3  1  0
  3  4  1  0
  4  5  1  0
  5  6  1  0
  6  7  1  0
  7  8  1  0
  8  9  1  0
  9 10  1  0
  9 11  1  0
  9 12  1  0
  8 13  1  0
  8 14  1  0
  7 15  1  0
  7 16  1  0
  6 17  1  0
  6 18  1  0
  5 19  1  0
  5 20  1  0
  4 21  1  0
  4 22  1  0
  3 23  1  0
  3 24  1  0
  1 25  1  0
M  END
$$$$
