
     RDKit          3D

  9  8  0  0  0  0  0  0  0  0999 V2000
   17.9070  -43.8592   -7.8497 C   0  0  0  0  0  0  0  0  0  0  0  0
   17.8238  -44.5645   -6.5931 N   0  0  0  0  0  0  0  0  0  0  0  0
   17.5474  -43.7601   -5.4036 C   0  0  0  0  0  0  0  0  0  0  0  0
   18.0020  -45.9927   -6.4978 C   0  0  0  0  0  0  0  0  0  0  0  0
   18.2518  -46.6114   -7.5888 N   0  0  0  0  0  0  0  0  0  0  0  0
   17.8884  -46.5819   -5.2310 N   0  0  0  0  0  0  0  0  0  0  0  0
   17.9258  -47.8265   -4.9463 C   0  0  0  0  0  0  0  0  0  0  0  0
   16.7739  -48.5614   -4.5042 N   0  0  0  0  0  0  0  0  0  0  0  0
   19.1935  -48.4826   -5.0877 N   0  0  0  0  0  0  0  0  0  0  0  0
  1  2  1  0
  2  3  1  0
  2  4  1  0
  4  5  2  0
  4  6  1  0
  6  7  2  3
  7  8  1  0
  7  9  1  0
M  END
$$$$
