
     RDKit          3D

  9  8  0  0  0  0  0  0  0  0999 V2000
    9.7188  -56.2245    1.9936 C   0  0  0  0  0  0  0  0  0  0  0  0
   11.0385  -55.6985    1.7388 N   0  0  0  0  0  0  0  0  0  0  0  0
   12.0841  -56.6697    1.4194 C   0  0  0  0  0  0  0  0  0  0  0  0
   11.3288  -54.2866    1.7924 C   0  0  0  0  0  0  0  0  0  0  0  0
   10.3889  -53.5253    2.2078 N   0  0  0  0  0  0  0  0  0  0  0  0
   12.6039  -53.8662    1.3895 N   0  0  0  0  0  0  0  0  0  0  0  0
   13.1034  -52.6948    1.4877 C   0  0  0  0  0  0  0  0  0  0  0  0
   12.3976  -51.5917    2.0772 N   0  0  0  0  0  0  0  0  0  0  0  0
   14.4306  -52.5146    0.9744 N   0  0  0  0  0  0  0  0  0  0  0  0
  1  2  1  0
  2  3  1  0
  2  4  1  0
  4  5  2  0
  4  6  1  0
  6  7  2  3
  7  8  1  0
  7  9  1  0
M  END
$$$$
