
     RDKit          3D

 25 24  0  0  0  0  0  0  0  0999 V2000
   -5.1833    5.8721  -12.7529 C   0  0  0  0  0  0  0  0  0  0  0  0
   -6.1056    6.5785  -13.2805 O   0  0  0  0  0  0  0  0  0  0  0  0
   -5.2221    5.5397  -11.3049 C   0  0  0  0  0  0  0  0  0  0  0  0
   -6.6512    5.6100  -10.7436 C   0  0  0  0  0  0  0  0  0  0  0  0
   -6.6931    5.1535   -9.3229 C   0  0  0  0  0  0  0  0  0  0  0  0
   -8.0412    5.3031   -8.7065 C   0  0  0  0  0  0  0  0  0  0  0  0
   -8.4155    4.4888   -7.5485 C   0  0  0  0  0  0  0  0  0  0  0  0
   -9.6722    4.8325   -6.8083 C   0  0  0  0  0  0  0  0  0  0  0  0
   -9.9620    4.0967   -5.5473 C   0  0  0  0  0  0  0  0  0  0  0  0
  -11.2833    4.4704   -5.1693 F   0  0  0  0  0  0  0  0  0  0  0  0
   -9.1189    4.4842   -4.5454 F   0  0  0  0  0  0  0  0  0  0  0  0
  -10.0782    2.7227   -5.6850 F   0  0  0  0  0  0  0  0  0  0  0  0
   -9.5081    6.1798   -6.4275 F   0  0  0  0  0  0  0  0  0  0  0  0
  -10.7782    4.8630   -7.6491 F   0  0  0  0  0  0  0  0  0  0  0  0
   -7.4182    4.6272   -6.5379 F   0  0  0  0  0  0  0  0  0  0  0  0
   -8.4530    3.1309   -7.7789 F   0  0  0  0  0  0  0  0  0  0  0  0
   -8.9389    5.1060   -9.7893 F   0  0  0  0  0  0  0  0  0  0  0  0
   -8.2925    6.6461   -8.3651 F   0  0  0  0  0  0  0  0  0  0  0  0
   -6.2474    3.8206   -9.2178 F   0  0  0  0  0  0  0  0  0  0  0  0
   -5.7224    5.8796   -8.6444 F   0  0  0  0  0  0  0  0  0  0  0  0
   -7.5409    5.0019  -11.5549 F   0  0  0  0  0  0  0  0  0  0  0  0
   -6.8696    7.0099  -10.7186 F   0  0  0  0  0  0  0  0  0  0  0  0
   -4.4734    6.4053  -10.5302 F   0  0  0  0  0  0  0  0  0  0  0  0
   -4.7062    4.2784  -11.0735 F   0  0  0  0  0  0  0  0  0  0  0  0
   -4.1151    5.3879  -13.4978 O   0  0  0  0  0  0  0  0  0  0  0  0
  1  2  2  0
  1  3  1  0
  3  4  1  0
  4  5  1  0
  5  6  1  0
  6  7  1  0
  7  8  1  0
  8  9  1  0
  9 10  1  0
  9 11  1  0
  9 12  1  0
  8 13  1  0
  8 14  1  0
  7 15  1  0
  7 16  1  0
  6 17  1  0
  6 18  1  0
  5 19  1  0
  5 20  1  0
  4 21  1  0
  4 22  1  0
  3 23  1  0
  3 24  1  0
  1 25  1  0
M  END
$$$$
