
     RDKit          3D

 25 24  0  0  0  0  0  0  0  0999 V2000
   -2.9815    4.8276  -11.9746 C   0  0  0  0  0  0  0  0  0  0  0  0
   -2.8615    3.5573  -11.9785 O   0  0  0  0  0  0  0  0  0  0  0  0
   -3.7127    5.5133  -10.8774 C   0  0  0  0  0  0  0  0  0  0  0  0
   -5.2203    5.2180  -10.9276 C   0  0  0  0  0  0  0  0  0  0  0  0
   -5.8617    5.4731   -9.6039 C   0  0  0  0  0  0  0  0  0  0  0  0
   -7.3364    5.2623   -9.6253 C   0  0  0  0  0  0  0  0  0  0  0  0
   -8.0784    5.1246   -8.3705 C   0  0  0  0  0  0  0  0  0  0  0  0
   -9.2568    4.1997   -8.3339 C   0  0  0  0  0  0  0  0  0  0  0  0
   -8.9942    2.7348   -8.3584 C   0  0  0  0  0  0  0  0  0  0  0  0
   -9.0843    2.2970   -7.0061 F   0  0  0  0  0  0  0  0  0  0  0  0
   -7.7288    2.4679   -8.7971 F   0  0  0  0  0  0  0  0  0  0  0  0
   -9.9753    1.9745   -8.9745 F   0  0  0  0  0  0  0  0  0  0  0  0
   -9.8720    4.4501   -7.0905 F   0  0  0  0  0  0  0  0  0  0  0  0
  -10.2294    4.5611   -9.2584 F   0  0  0  0  0  0  0  0  0  0  0  0
   -8.6655    6.3807   -8.0344 F   0  0  0  0  0  0  0  0  0  0  0  0
   -7.3082    4.8250   -7.2681 F   0  0  0  0  0  0  0  0  0  0  0  0
   -7.5097    4.1236  -10.4562 F   0  0  0  0  0  0  0  0  0  0  0  0
   -7.9778    6.2666  -10.3759 F   0  0  0  0  0  0  0  0  0  0  0  0
   -5.2642    4.6807   -8.6032 F   0  0  0  0  0  0  0  0  0  0  0  0
   -5.5223    6.7709   -9.2425 F   0  0  0  0  0  0  0  0  0  0  0  0
   -5.4776    4.0016  -11.4507 F   0  0  0  0  0  0  0  0  0  0  0  0
   -5.6739    6.2434  -11.7941 F   0  0  0  0  0  0  0  0  0  0  0  0
   -3.5997    6.8897  -10.9286 F   0  0  0  0  0  0  0  0  0  0  0  0
   -3.2182    5.1363   -9.6430 F   0  0  0  0  0  0  0  0  0  0  0  0
   -2.4414    5.6171  -12.9822 O   0  0  0  0  0  0  0  0  0  0  0  0
  1  2  2  0
  1  3  1  0
  3  4  1  0
  4  5  1  0
  5  6  1  0
  6  7  1  0
  7  8  1  0
  8  9  1  0
  9 10  1  0
  9 11  1  0
  9 12  1  0
  8 13  1  0
  8 14  1  0
  7 15  1  0
  7 16  1  0
  6 17  1  0
  6 18  1  0
  5 19  1  0
  5 20  1  0
  4 21  1  0
  4 22  1  0
  3 23  1  0
  3 24  1  0
  1 25  1  0
M  END
$$$$
