
     RDKit          3D

 25 24  0  0  0  0  0  0  0  0999 V2000
   -4.3200    5.8853  -12.0768 C   0  0  0  0  0  0  0  0  0  0  0  0
   -3.2033    6.3159  -11.6345 O   0  0  0  0  0  0  0  0  0  0  0  0
   -5.5953    6.2936  -11.4321 C   0  0  0  0  0  0  0  0  0  0  0  0
   -5.9174    5.4226  -10.2073 C   0  0  0  0  0  0  0  0  0  0  0  0
   -7.2997    5.6868   -9.7092 C   0  0  0  0  0  0  0  0  0  0  0  0
   -7.6830    4.8053   -8.5710 C   0  0  0  0  0  0  0  0  0  0  0  0
   -8.8786    5.1028   -7.7799 C   0  0  0  0  0  0  0  0  0  0  0  0
   -9.2994    4.1261   -6.7243 C   0  0  0  0  0  0  0  0  0  0  0  0
  -10.3367    4.5584   -5.7482 C   0  0  0  0  0  0  0  0  0  0  0  0
  -10.3697    3.5535   -4.7393 F   0  0  0  0  0  0  0  0  0  0  0  0
  -11.5719    4.6035   -6.3289 F   0  0  0  0  0  0  0  0  0  0  0  0
  -10.0168    5.6915   -5.0175 F   0  0  0  0  0  0  0  0  0  0  0  0
   -9.8765    3.0545   -7.4354 F   0  0  0  0  0  0  0  0  0  0  0  0
   -8.2081    3.5464   -6.0886 F   0  0  0  0  0  0  0  0  0  0  0  0
  -10.0149    5.1290   -8.6421 F   0  0  0  0  0  0  0  0  0  0  0  0
   -8.8930    6.3487   -7.1918 F   0  0  0  0  0  0  0  0  0  0  0  0
   -6.5199    4.7688   -7.7567 F   0  0  0  0  0  0  0  0  0  0  0  0
   -7.7860    3.4634   -8.9858 F   0  0  0  0  0  0  0  0  0  0  0  0
   -7.4476    7.0429   -9.3550 F   0  0  0  0  0  0  0  0  0  0  0  0
   -8.1489    5.5366  -10.7984 F   0  0  0  0  0  0  0  0  0  0  0  0
   -4.9560    5.5046   -9.2647 F   0  0  0  0  0  0  0  0  0  0  0  0
   -5.9433    4.1297  -10.7869 F   0  0  0  0  0  0  0  0  0  0  0  0
   -6.6876    6.1776  -12.2708 F   0  0  0  0  0  0  0  0  0  0  0  0
   -5.5511    7.6199  -11.0457 F   0  0  0  0  0  0  0  0  0  0  0  0
   -4.3938    5.0267  -13.1666 O   0  0  0  0  0  0  0  0  0  0  0  0
  1  2  2  0
  1  3  1  0
  3  4  1  0
  4  5  1  0
  5  6  1  0
  6  7  1  0
  7  8  1  0
  8  9  1  0
  9 10  1  0
  9 11  1  0
  9 12  1  0
  8 13  1  0
  8 14  1  0
  7 15  1  0
  7 16  1  0
  6 17  1  0
  6 18  1  0
  5 19  1  0
  5 20  1  0
  4 21  1  0
  4 22  1  0
  3 23  1  0
  3 24  1  0
  1 25  1  0
M  END
$$$$
