
     RDKit          3D

 25 24  0  0  0  0  0  0  0  0999 V2000
   -4.5116    6.1037  -11.8262 C   0  0  0  0  0  0  0  0  0  0  0  0
   -4.0541    7.2795  -12.0168 O   0  0  0  0  0  0  0  0  0  0  0  0
   -5.9639    5.8868  -11.5972 C   0  0  0  0  0  0  0  0  0  0  0  0
   -6.3248    5.9829  -10.1062 C   0  0  0  0  0  0  0  0  0  0  0  0
   -7.6166    5.2912   -9.8209 C   0  0  0  0  0  0  0  0  0  0  0  0
   -7.9448    5.2546   -8.3681 C   0  0  0  0  0  0  0  0  0  0  0  0
   -9.1016    4.4923   -7.8939 C   0  0  0  0  0  0  0  0  0  0  0  0
   -9.3857    4.4643   -6.4229 C   0  0  0  0  0  0  0  0  0  0  0  0
  -10.7929    4.2479   -5.9887 C   0  0  0  0  0  0  0  0  0  0  0  0
  -10.8315    4.5772   -4.6035 F   0  0  0  0  0  0  0  0  0  0  0  0
  -11.1511    2.9359   -6.1130 F   0  0  0  0  0  0  0  0  0  0  0  0
  -11.7133    5.1354   -6.5228 F   0  0  0  0  0  0  0  0  0  0  0  0
   -8.6682    3.3514   -5.9393 F   0  0  0  0  0  0  0  0  0  0  0  0
   -8.8054    5.5398   -5.7613 F   0  0  0  0  0  0  0  0  0  0  0  0
   -8.9060    3.1113   -8.1936 F   0  0  0  0  0  0  0  0  0  0  0  0
  -10.2923    4.7911   -8.5194 F   0  0  0  0  0  0  0  0  0  0  0  0
   -8.0423    6.6236   -8.0024 F   0  0  0  0  0  0  0  0  0  0  0  0
   -6.8344    4.8330   -7.6114 F   0  0  0  0  0  0  0  0  0  0  0  0
   -8.6672    5.8840  -10.5496 F   0  0  0  0  0  0  0  0  0  0  0  0
   -7.5139    4.0183  -10.3678 F   0  0  0  0  0  0  0  0  0  0  0  0
   -6.2553    7.2513   -9.6525 F   0  0  0  0  0  0  0  0  0  0  0  0
   -5.3087    5.1850   -9.5241 F   0  0  0  0  0  0  0  0  0  0  0  0
   -6.3965    4.6397  -12.0067 F   0  0  0  0  0  0  0  0  0  0  0  0
   -6.7181    6.8030  -12.3058 F   0  0  0  0  0  0  0  0  0  0  0  0
   -3.6842    4.9875  -11.8241 O   0  0  0  0  0  0  0  0  0  0  0  0
  1  2  2  0
  1  3  1  0
  3  4  1  0
  4  5  1  0
  5  6  1  0
  6  7  1  0
  7  8  1  0
  8  9  1  0
  9 10  1  0
  9 11  1  0
  9 12  1  0
  8 13  1  0
  8 14  1  0
  7 15  1  0
  7 16  1  0
  6 17  1  0
  6 18  1  0
  5 19  1  0
  5 20  1  0
  4 21  1  0
  4 22  1  0
  3 23  1  0
  3 24  1  0
  1 25  1  0
M  END
$$$$
