
     RDKit          3D

 25 24  0  0  0  0  0  0  0  0999 V2000
   -4.5498    6.6271  -11.6187 C   0  0  0  0  0  0  0  0  0  0  0  0
   -4.7399    7.8577  -11.3401 O   0  0  0  0  0  0  0  0  0  0  0  0
   -5.6319    5.6301  -11.4098 C   0  0  0  0  0  0  0  0  0  0  0  0
   -6.2503    5.7478  -10.0076 C   0  0  0  0  0  0  0  0  0  0  0  0
   -7.0312    4.5236   -9.6607 C   0  0  0  0  0  0  0  0  0  0  0  0
   -7.8067    4.6706   -8.3972 C   0  0  0  0  0  0  0  0  0  0  0  0
   -8.6067    3.5538   -7.8905 C   0  0  0  0  0  0  0  0  0  0  0  0
   -8.8647    3.4692   -6.4169 C   0  0  0  0  0  0  0  0  0  0  0  0
   -8.7376    2.1385   -5.7622 C   0  0  0  0  0  0  0  0  0  0  0  0
   -9.7149    1.3039   -6.3761 F   0  0  0  0  0  0  0  0  0  0  0  0
   -9.0337    2.2135   -4.4311 F   0  0  0  0  0  0  0  0  0  0  0  0
   -7.5619    1.4595   -6.0396 F   0  0  0  0  0  0  0  0  0  0  0  0
   -7.8662    4.2730   -5.8303 F   0  0  0  0  0  0  0  0  0  0  0  0
  -10.0476    4.1048   -6.0594 F   0  0  0  0  0  0  0  0  0  0  0  0
   -7.9199    2.3309   -8.1511 F   0  0  0  0  0  0  0  0  0  0  0  0
   -9.8228    3.3782   -8.5139 F   0  0  0  0  0  0  0  0  0  0  0  0
   -8.6076    5.8229   -8.6167 F   0  0  0  0  0  0  0  0  0  0  0  0
   -6.9754    5.0947   -7.3425 F   0  0  0  0  0  0  0  0  0  0  0  0
   -7.8831    4.1621  -10.7237 F   0  0  0  0  0  0  0  0  0  0  0  0
   -6.1201    3.4767   -9.5984 F   0  0  0  0  0  0  0  0  0  0  0  0
   -6.9232    6.9061   -9.8500 F   0  0  0  0  0  0  0  0  0  0  0  0
   -5.0916    5.7253   -9.1920 F   0  0  0  0  0  0  0  0  0  0  0  0
   -5.1929    4.3240  -11.5162 F   0  0  0  0  0  0  0  0  0  0  0  0
   -6.6275    5.7755  -12.3575 F   0  0  0  0  0  0  0  0  0  0  0  0
   -3.3390    6.1692  -12.1231 O   0  0  0  0  0  0  0  0  0  0  0  0
  1  2  2  0
  1  3  1  0
  3  4  1  0
  4  5  1  0
  5  6  1  0
  6  7  1  0
  7  8  1  0
  8  9  1  0
  9 10  1  0
  9 11  1  0
  9 12  1  0
  8 13  1  0
  8 14  1  0
  7 15  1  0
  7 16  1  0
  6 17  1  0
  6 18  1  0
  5 19  1  0
  5 20  1  0
  4 21  1  0
  4 22  1  0
  3 23  1  0
  3 24  1  0
  1 25  1  0
M  END
$$$$
