
     RDKit          3D

 16 15  0  0  0  0  0  0  0  0999 V2000
   14.2636  -54.7322   28.0252 C   0  0  0  0  0  0  0  0  0  0  0  0
   12.7644  -54.7626   28.2263 C   0  0  0  0  0  0  0  0  0  0  0  0
   12.4533  -54.8641   29.6756 N   0  0  0  0  0  0  0  0  0  0  0  0
   11.9912  -56.1723   30.0641 C   0  0  0  0  0  0  0  0  0  0  0  0
   10.4874  -56.0895   30.3122 C   0  0  0  0  0  0  0  0  0  0  0  0
   12.6436  -53.7321   30.4633 C   0  0  0  0  0  0  0  0  0  0  0  0
   11.8470  -53.7699   31.9544 S   0  0  0  0  0  0  0  0  0  0  0  0
   13.5666  -52.2678   30.1814 S   0  0  0  0  0  0  0  0  0  0  0  0
   12.9457  -50.6929   31.4123 S   0  0  0  0  0  0  0  0  0  0  0  0
   11.1666  -50.4472   31.4051 C   0  0  0  0  0  0  0  0  0  0  0  0
   10.3086  -50.8818   30.1042 S   0  0  0  0  0  0  0  0  0  0  0  0
   10.5456  -49.8683   32.5602 N   0  0  0  0  0  0  0  0  0  0  0  0
    9.3407  -49.0757   32.4235 C   0  0  0  0  0  0  0  0  0  0  0  0
    8.1475  -49.7064   33.0668 C   0  0  0  0  0  0  0  0  0  0  0  0
   11.1191  -50.0913   33.8701 C   0  0  0  0  0  0  0  0  0  0  0  0
   12.3254  -49.1761   34.0912 C   0  0  0  0  0  0  0  0  0  0  0  0
  1  2  1  0
  2  3  1  0
  3  4  1  0
  4  5  1  0
  3  6  1  0
  6  7  2  0
  6  8  1  0
  8  9  1  0
  9 10  1  0
 10 11  2  0
 10 12  1  0
 12 13  1  0
 13 14  1  0
 12 15  1  0
 15 16  1  0
M  END
$$$$
