
     RDKit          3D

 16 15  0  0  0  0  0  0  0  0999 V2000
   16.3267  -55.8772   30.1251 C   0  0  0  0  0  0  0  0  0  0  0  0
   15.2231  -55.9047   31.1597 C   0  0  0  0  0  0  0  0  0  0  0  0
   13.9144  -55.6451   30.5059 N   0  0  0  0  0  0  0  0  0  0  0  0
   12.8110  -56.2844   31.1765 C   0  0  0  0  0  0  0  0  0  0  0  0
   12.4356  -57.5346   30.3853 C   0  0  0  0  0  0  0  0  0  0  0  0
   13.9020  -54.8395   29.3705 C   0  0  0  0  0  0  0  0  0  0  0  0
   13.0994  -55.5087   28.0411 S   0  0  0  0  0  0  0  0  0  0  0  0
   14.5748  -53.2473   29.0738 S   0  0  0  0  0  0  0  0  0  0  0  0
   13.0935  -51.8285   28.6569 S   0  0  0  0  0  0  0  0  0  0  0  0
   12.4611  -51.0119   30.1263 C   0  0  0  0  0  0  0  0  0  0  0  0
   13.1003  -51.3647   31.5700 S   0  0  0  0  0  0  0  0  0  0  0  0
   11.3983  -50.0606   29.9832 N   0  0  0  0  0  0  0  0  0  0  0  0
   11.2567  -49.3000   28.7584 C   0  0  0  0  0  0  0  0  0  0  0  0
   10.4997  -50.0323   27.6973 C   0  0  0  0  0  0  0  0  0  0  0  0
   10.4544  -49.8723   31.0640 C   0  0  0  0  0  0  0  0  0  0  0  0
   11.0804  -49.0401   32.1851 C   0  0  0  0  0  0  0  0  0  0  0  0
  1  2  1  0
  2  3  1  0
  3  4  1  0
  4  5  1  0
  3  6  1  0
  6  7  2  0
  6  8  1  0
  8  9  1  0
  9 10  1  0
 10 11  2  0
 10 12  1  0
 12 13  1  0
 13 14  1  0
 12 15  1  0
 15 16  1  0
M  END
$$$$
