
     RDKit          3D

 16 15  0  0  0  0  0  0  0  0999 V2000
   13.2815  -50.5533   32.8277 C   0  0  0  0  0  0  0  0  0  0  0  0
   12.0043  -49.7422   32.8404 C   0  0  0  0  0  0  0  0  0  0  0  0
   11.2120  -50.0326   31.6175 N   0  0  0  0  0  0  0  0  0  0  0  0
   10.8319  -48.8453   30.8953 C   0  0  0  0  0  0  0  0  0  0  0  0
    9.3117  -48.7215   30.9532 C   0  0  0  0  0  0  0  0  0  0  0  0
   10.9446  -51.3652   31.3159 C   0  0  0  0  0  0  0  0  0  0  0  0
   10.0564  -51.6013   29.8965 S   0  0  0  0  0  0  0  0  0  0  0  0
   11.3673  -52.8481   32.1513 S   0  0  0  0  0  0  0  0  0  0  0  0
   10.8319  -54.5511   31.0584 S   0  0  0  0  0  0  0  0  0  0  0  0
   11.9989  -54.9510   29.7531 C   0  0  0  0  0  0  0  0  0  0  0  0
   13.2717  -53.9849   29.5003 S   0  0  0  0  0  0  0  0  0  0  0  0
   11.7729  -56.1247   28.9617 N   0  0  0  0  0  0  0  0  0  0  0  0
   10.6335  -56.9788   29.2280 C   0  0  0  0  0  0  0  0  0  0  0  0
   10.9733  -58.1631   30.0751 C   0  0  0  0  0  0  0  0  0  0  0  0
   12.6810  -56.4472   27.8820 C   0  0  0  0  0  0  0  0  0  0  0  0
   14.1176  -56.5455   28.3996 C   0  0  0  0  0  0  0  0  0  0  0  0
  1  2  1  0
  2  3  1  0
  3  4  1  0
  4  5  1  0
  3  6  1  0
  6  7  2  0
  6  8  1  0
  8  9  1  0
  9 10  1  0
 10 11  2  0
 10 12  1  0
 12 13  1  0
 13 14  1  0
 12 15  1  0
 15 16  1  0
M  END
$$$$
