
     RDKit          3D

 25 24  0  0  0  0  0  0  0  0999 V2000
  -13.2068   10.7802   -6.2700 C   0  0  0  0  0  0  0  0  0  0  0  0
  -12.7107   10.1783   -5.2466 O   0  0  0  0  0  0  0  0  0  0  0  0
  -12.3583   11.1885   -7.3952 C   0  0  0  0  0  0  0  0  0  0  0  0
  -10.9395   10.7951   -7.3724 C   0  0  0  0  0  0  0  0  0  0  0  0
  -10.0818   11.1610   -8.5398 C   0  0  0  0  0  0  0  0  0  0  0  0
   -8.8890   10.2445   -8.5232 C   0  0  0  0  0  0  0  0  0  0  0  0
   -7.9099   10.3903   -9.6153 C   0  0  0  0  0  0  0  0  0  0  0  0
   -6.8714    9.3365   -9.7780 C   0  0  0  0  0  0  0  0  0  0  0  0
   -6.1448    9.6244  -11.1110 C   0  0  0  0  0  0  0  0  0  0  0  0
   -7.0423    9.9112  -12.1086 F   0  0  0  0  0  0  0  0  0  0  0  0
   -5.3051   10.7067  -10.9573 F   0  0  0  0  0  0  0  0  0  0  0  0
   -5.3467    8.5325  -11.4209 F   0  0  0  0  0  0  0  0  0  0  0  0
   -7.3734    8.0568   -9.9530 F   0  0  0  0  0  0  0  0  0  0  0  0
   -5.9203    9.3553   -8.7960 F   0  0  0  0  0  0  0  0  0  0  0  0
   -8.5078   10.5970  -10.8553 F   0  0  0  0  0  0  0  0  0  0  0  0
   -7.2098   11.5883   -9.3743 F   0  0  0  0  0  0  0  0  0  0  0  0
   -8.2192   10.3005   -7.3098 F   0  0  0  0  0  0  0  0  0  0  0  0
   -9.4072    8.9441   -8.5806 F   0  0  0  0  0  0  0  0  0  0  0  0
   -9.7448   12.4702   -8.6541 F   0  0  0  0  0  0  0  0  0  0  0  0
  -10.8352   10.8215   -9.6799 F   0  0  0  0  0  0  0  0  0  0  0  0
  -10.3883   11.2095   -6.1659 F   0  0  0  0  0  0  0  0  0  0  0  0
  -10.9026    9.3938   -7.2996 F   0  0  0  0  0  0  0  0  0  0  0  0
  -12.5392   12.5481   -7.6551 F   0  0  0  0  0  0  0  0  0  0  0  0
  -12.9022   10.5714   -8.5408 F   0  0  0  0  0  0  0  0  0  0  0  0
  -14.5796   10.9877   -6.1908 O   0  0  0  0  0  0  0  0  0  0  0  0
  1  2  2  0
  1  3  1  0
  3  4  1  0
  4  5  1  0
  5  6  1  0
  6  7  1  0
  7  8  1  0
  8  9  1  0
  9 10  1  0
  9 11  1  0
  9 12  1  0
  8 13  1  0
  8 14  1  0
  7 15  1  0
  7 16  1  0
  6 17  1  0
  6 18  1  0
  5 19  1  0
  5 20  1  0
  4 21  1  0
  4 22  1  0
  3 23  1  0
  3 24  1  0
  1 25  1  0
M  END
$$$$
