
     RDKit          3D

 25 24  0  0  0  0  0  0  0  0999 V2000
   -6.7021   -0.2441   -9.5065 C   0  0  0  0  0  0  0  0  0  0  0  0
   -6.6149    0.9457   -9.0242 O   0  0  0  0  0  0  0  0  0  0  0  0
   -6.8532   -1.4096   -8.6281 C   0  0  0  0  0  0  0  0  0  0  0  0
   -6.6570   -1.2179   -7.1814 C   0  0  0  0  0  0  0  0  0  0  0  0
   -7.3119   -2.1776   -6.2421 C   0  0  0  0  0  0  0  0  0  0  0  0
   -7.0371   -1.6937   -4.8446 C   0  0  0  0  0  0  0  0  0  0  0  0
   -7.7775   -2.3423   -3.7473 C   0  0  0  0  0  0  0  0  0  0  0  0
   -7.9078   -1.6137   -2.4560 C   0  0  0  0  0  0  0  0  0  0  0  0
   -9.1388   -2.2023   -1.7308 C   0  0  0  0  0  0  0  0  0  0  0  0
   -8.7667   -2.8635   -0.5874 F   0  0  0  0  0  0  0  0  0  0  0  0
  -10.0026   -1.1858   -1.3836 F   0  0  0  0  0  0  0  0  0  0  0  0
   -9.8178   -3.0267   -2.6165 F   0  0  0  0  0  0  0  0  0  0  0  0
   -8.2194   -0.2695   -2.5832 F   0  0  0  0  0  0  0  0  0  0  0  0
   -6.8369   -1.7876   -1.6239 F   0  0  0  0  0  0  0  0  0  0  0  0
   -9.0466   -2.7691   -4.1278 F   0  0  0  0  0  0  0  0  0  0  0  0
   -7.0948   -3.5374   -3.4491 F   0  0  0  0  0  0  0  0  0  0  0  0
   -5.6818   -1.7247   -4.5510 F   0  0  0  0  0  0  0  0  0  0  0  0
   -7.3679   -0.3323   -4.8410 F   0  0  0  0  0  0  0  0  0  0  0  0
   -7.0171   -3.4902   -6.4179 F   0  0  0  0  0  0  0  0  0  0  0  0
   -8.6955   -2.0269   -6.4561 F   0  0  0  0  0  0  0  0  0  0  0  0
   -5.2951   -1.0902   -6.9362 F   0  0  0  0  0  0  0  0  0  0  0  0
   -7.1802    0.0443   -6.8594 F   0  0  0  0  0  0  0  0  0  0  0  0
   -6.1200   -2.4834   -9.1365 F   0  0  0  0  0  0  0  0  0  0  0  0
   -8.1883   -1.8400   -8.7737 F   0  0  0  0  0  0  0  0  0  0  0  0
   -6.6415   -0.2952  -10.8949 O   0  0  0  0  0  0  0  0  0  0  0  0
  1  2  2  0
  1  3  1  0
  3  4  1  0
  4  5  1  0
  5  6  1  0
  6  7  1  0
  7  8  1  0
  8  9  1  0
  9 10  1  0
  9 11  1  0
  9 12  1  0
  8 13  1  0
  8 14  1  0
  7 15  1  0
  7 16  1  0
  6 17  1  0
  6 18  1  0
  5 19  1  0
  5 20  1  0
  4 21  1  0
  4 22  1  0
  3 23  1  0
  3 24  1  0
  1 25  1  0
M  END
$$$$
