
     RDKit          3D

 25 24  0  0  0  0  0  0  0  0999 V2000
    2.2393   18.0918   -0.0088 C   0  0  0  0  0  0  0  0  0  0  0  0
    2.4240   18.7113    1.1038 O   0  0  0  0  0  0  0  0  0  0  0  0
    2.0857   16.6332   -0.0486 C   0  0  0  0  0  0  0  0  0  0  0  0
    2.5107   15.8585    1.1293 C   0  0  0  0  0  0  0  0  0  0  0  0
    2.1845   14.4013    1.1771 C   0  0  0  0  0  0  0  0  0  0  0  0
    2.5926   13.8958    2.5338 C   0  0  0  0  0  0  0  0  0  0  0  0
    2.3866   12.4627    2.8108 C   0  0  0  0  0  0  0  0  0  0  0  0
    2.9308   11.9031    4.0781 C   0  0  0  0  0  0  0  0  0  0  0  0
    2.4944   10.4221    4.1386 C   0  0  0  0  0  0  0  0  0  0  0  0
    2.5721    9.9382    5.4203 F   0  0  0  0  0  0  0  0  0  0  0  0
    1.1902   10.3047    3.7080 F   0  0  0  0  0  0  0  0  0  0  0  0
    3.2802    9.6961    3.2550 F   0  0  0  0  0  0  0  0  0  0  0  0
    2.3844   12.4487    5.2288 F   0  0  0  0  0  0  0  0  0  0  0  0
    4.2968   11.9166    4.1352 F   0  0  0  0  0  0  0  0  0  0  0  0
    1.0527   12.0776    2.7109 F   0  0  0  0  0  0  0  0  0  0  0  0
    3.0211   11.7543    1.7721 F   0  0  0  0  0  0  0  0  0  0  0  0
    3.9080   14.2247    2.8266 F   0  0  0  0  0  0  0  0  0  0  0  0
    1.8325   14.6259    3.4568 F   0  0  0  0  0  0  0  0  0  0  0  0
    2.6643   13.6419    0.1603 F   0  0  0  0  0  0  0  0  0  0  0  0
    0.7792   14.3296    1.1261 F   0  0  0  0  0  0  0  0  0  0  0  0
    3.8610   16.1016    1.3508 F   0  0  0  0  0  0  0  0  0  0  0  0
    1.8756   16.4258    2.2453 F   0  0  0  0  0  0  0  0  0  0  0  0
    2.6101   16.1347   -1.2426 F   0  0  0  0  0  0  0  0  0  0  0  0
    0.7034   16.3877   -0.1825 F   0  0  0  0  0  0  0  0  0  0  0  0
    2.2014   18.9277   -1.1196 O   0  0  0  0  0  0  0  0  0  0  0  0
  1  2  2  0
  1  3  1  0
  3  4  1  0
  4  5  1  0
  5  6  1  0
  6  7  1  0
  7  8  1  0
  8  9  1  0
  9 10  1  0
  9 11  1  0
  9 12  1  0
  8 13  1  0
  8 14  1  0
  7 15  1  0
  7 16  1  0
  6 17  1  0
  6 18  1  0
  5 19  1  0
  5 20  1  0
  4 21  1  0
  4 22  1  0
  3 23  1  0
  3 24  1  0
  1 25  1  0
M  END
$$$$
