
     RDKit          3D

 25 24  0  0  0  0  0  0  0  0999 V2000
   -4.5552   10.7373  -12.0931 C   0  0  0  0  0  0  0  0  0  0  0  0
   -5.5612   11.5299  -11.9683 O   0  0  0  0  0  0  0  0  0  0  0  0
   -4.3973    9.5685  -11.2204 C   0  0  0  0  0  0  0  0  0  0  0  0
   -4.6820    9.7311   -9.7849 C   0  0  0  0  0  0  0  0  0  0  0  0
   -4.5368    8.5418   -8.8924 C   0  0  0  0  0  0  0  0  0  0  0  0
   -5.2486    8.8587   -7.6056 C   0  0  0  0  0  0  0  0  0  0  0  0
   -5.4594    7.7484   -6.6592 C   0  0  0  0  0  0  0  0  0  0  0  0
   -5.9766    8.0673   -5.3005 C   0  0  0  0  0  0  0  0  0  0  0  0
   -6.1343    6.7240   -4.5535 C   0  0  0  0  0  0  0  0  0  0  0  0
   -7.0581    5.9213   -5.1742 F   0  0  0  0  0  0  0  0  0  0  0  0
   -4.9263    6.0603   -4.5322 F   0  0  0  0  0  0  0  0  0  0  0  0
   -6.4733    6.9916   -3.2349 F   0  0  0  0  0  0  0  0  0  0  0  0
   -7.2559    8.5996   -5.2826 F   0  0  0  0  0  0  0  0  0  0  0  0
   -5.1208    8.8346   -4.5600 F   0  0  0  0  0  0  0  0  0  0  0  0
   -6.2447    6.7276   -7.1873 F   0  0  0  0  0  0  0  0  0  0  0  0
   -4.2043    7.1409   -6.4617 F   0  0  0  0  0  0  0  0  0  0  0  0
   -4.6449    9.9118   -6.9344 F   0  0  0  0  0  0  0  0  0  0  0  0
   -6.5061    9.3516   -7.9774 F   0  0  0  0  0  0  0  0  0  0  0  0
   -3.2752    8.0803   -8.7025 F   0  0  0  0  0  0  0  0  0  0  0  0
   -5.2694    7.5134   -9.5157 F   0  0  0  0  0  0  0  0  0  0  0  0
   -3.9685   10.8283   -9.3174 F   0  0  0  0  0  0  0  0  0  0  0  0
   -6.0244   10.1263   -9.6744 F   0  0  0  0  0  0  0  0  0  0  0  0
   -3.1640    8.9606  -11.4625 F   0  0  0  0  0  0  0  0  0  0  0  0
   -5.3206    8.6072  -11.6813 F   0  0  0  0  0  0  0  0  0  0  0  0
   -3.6752   11.0993  -13.1074 O   0  0  0  0  0  0  0  0  0  0  0  0
  1  2  2  0
  1  3  1  0
  3  4  1  0
  4  5  1  0
  5  6  1  0
  6  7  1  0
  7  8  1  0
  8  9  1  0
  9 10  1  0
  9 11  1  0
  9 12  1  0
  8 13  1  0
  8 14  1  0
  7 15  1  0
  7 16  1  0
  6 17  1  0
  6 18  1  0
  5 19  1  0
  5 20  1  0
  4 21  1  0
  4 22  1  0
  3 23  1  0
  3 24  1  0
  1 25  1  0
M  END
$$$$
