
     RDKit          3D

  4  3  0  0  0  0  0  0  0  0999 V2000
  -10.2756    7.3269    5.9991 C   0  0  0  0  0  0  0  0  0  0  0  0
  -11.1483    7.4767    7.2371 C   0  0  0  0  0  0  0  0  0  0  0  0
  -12.6116    8.4208    6.8850 Cl  0  0  0  0  0  0  0  0  0  0  0  0
   -8.8864    6.2925    6.2880 Cl  0  0  0  0  0  0  0  0  0  0  0  0
  1  2  1  0
  2  3  1  0
  1  4  1  0
M  END
$$$$
