
     RDKit          3D

 29 28  0  0  0  0  0  0  0  0999 V2000
    6.8974   -7.6053   12.8297 C   0  0  0  0  0  0  0  0  0  0  0  0
    6.5071   -8.9971   12.4703 C   0  0  0  0  0  0  0  0  0  0  0  0
    5.3065   -9.4845   13.2142 C   0  0  0  0  0  0  0  0  0  0  0  0
    4.9849  -10.9189   13.2571 C   0  0  0  0  0  0  0  0  0  0  0  0
    3.6491  -11.3221   13.7754 C   0  0  0  0  0  0  0  0  0  0  0  0
    2.6284  -10.9988   12.8644 F   0  0  0  0  0  0  0  0  0  0  0  0
    3.2517  -10.8559   14.9712 F   0  0  0  0  0  0  0  0  0  0  0  0
    3.6770  -13.1223   13.8827 S   0  0  0  0  0  0  0  0  0  0  0  0
    2.3140  -13.6378   14.2476 O   0  0  0  0  0  0  0  0  0  0  0  0
    4.0766  -13.7259   12.5878 O   0  0  0  0  0  0  0  0  0  0  0  0
    4.7264  -13.5777   15.1271 O   0  0  0  0  0  0  0  0  0  0  0  0
    4.9190  -11.3046   11.8664 F   0  0  0  0  0  0  0  0  0  0  0  0
    5.9746  -11.7323   13.7478 F   0  0  0  0  0  0  0  0  0  0  0  0
    5.3602   -8.9938   14.5329 F   0  0  0  0  0  0  0  0  0  0  0  0
    4.1418   -8.8480   12.7092 F   0  0  0  0  0  0  0  0  0  0  0  0
    6.3161   -9.0922   11.0915 F   0  0  0  0  0  0  0  0  0  0  0  0
    7.5679   -9.8765   12.7757 F   0  0  0  0  0  0  0  0  0  0  0  0
    8.1862   -7.1075   12.2814 C   0  0  0  0  0  0  0  0  0  0  0  0
    8.6324   -5.7358   12.5664 C   0  0  0  0  0  0  0  0  0  0  0  0
   10.0556   -5.3922   12.2704 C   0  0  0  0  0  0  0  0  0  0  0  0
   10.1764   -5.4778   10.8698 F   0  0  0  0  0  0  0  0  0  0  0  0
   11.0148   -6.1999   12.7683 F   0  0  0  0  0  0  0  0  0  0  0  0
   10.2753   -4.0619   12.6337 F   0  0  0  0  0  0  0  0  0  0  0  0
    7.7983   -4.7283   12.1024 F   0  0  0  0  0  0  0  0  0  0  0  0
    8.5449   -5.6074   13.9864 F   0  0  0  0  0  0  0  0  0  0  0  0
    8.0718   -7.2083   10.8779 F   0  0  0  0  0  0  0  0  0  0  0  0
    9.2264   -8.0079   12.5765 F   0  0  0  0  0  0  0  0  0  0  0  0
    6.8257   -7.5157   14.2094 F   0  0  0  0  0  0  0  0  0  0  0  0
    5.8878   -6.7327   12.3815 F   0  0  0  0  0  0  0  0  0  0  0  0
  1  2  1  0
  2  3  1  0
  3  4  1  0
  4  5  1  0
  5  6  1  0
  5  7  1  0
  5  8  1  0
  8  9  2  0
  8 10  2  0
  8 11  1  0
  4 12  1  0
  4 13  1  0
  3 14  1  0
  3 15  1  0
  2 16  1  0
  2 17  1  0
  1 18  1  0
 18 19  1  0
 19 20  1  0
 20 21  1  0
 20 22  1  0
 20 23  1  0
 19 24  1  0
 19 25  1  0
 18 26  1  0
 18 27  1  0
  1 28  1  0
  1 29  1  0
M  END
$$$$
