
     RDKit          3D

 29 28  0  0  0  0  0  0  0  0999 V2000
   -2.8864   14.8452   -0.1259 C   0  0  0  0  0  0  0  0  0  0  0  0
   -3.5490   15.1880   -1.4150 C   0  0  0  0  0  0  0  0  0  0  0  0
   -3.9282   13.9888   -2.2215 C   0  0  0  0  0  0  0  0  0  0  0  0
   -4.7034   14.1367   -3.4623 C   0  0  0  0  0  0  0  0  0  0  0  0
   -5.2702   12.9092   -4.0848 C   0  0  0  0  0  0  0  0  0  0  0  0
   -6.0791   12.2027   -3.1777 F   0  0  0  0  0  0  0  0  0  0  0  0
   -4.4296   12.0098   -4.6231 F   0  0  0  0  0  0  0  0  0  0  0  0
   -6.3656   13.4760   -5.4008 S   0  0  0  0  0  0  0  0  0  0  0  0
   -7.2006   14.6268   -4.9162 O   0  0  0  0  0  0  0  0  0  0  0  0
   -5.5890   13.9238   -6.5829 O   0  0  0  0  0  0  0  0  0  0  0  0
   -7.4314   12.2259   -5.7988 O   0  0  0  0  0  0  0  0  0  0  0  0
   -5.8834   14.8629   -3.0533 F   0  0  0  0  0  0  0  0  0  0  0  0
   -4.1536   14.9649   -4.4077 F   0  0  0  0  0  0  0  0  0  0  0  0
   -2.7661   13.2444   -2.5007 F   0  0  0  0  0  0  0  0  0  0  0  0
   -4.6702   13.0865   -1.4141 F   0  0  0  0  0  0  0  0  0  0  0  0
   -4.6565   16.0017   -1.1742 F   0  0  0  0  0  0  0  0  0  0  0  0
   -2.6686   15.9568   -2.2062 F   0  0  0  0  0  0  0  0  0  0  0  0
   -2.4170   15.9813    0.7098 C   0  0  0  0  0  0  0  0  0  0  0  0
   -1.8436   15.7348    2.0411 C   0  0  0  0  0  0  0  0  0  0  0  0
   -1.2726   16.9014    2.7788 C   0  0  0  0  0  0  0  0  0  0  0  0
   -0.8068   17.7811    1.7825 F   0  0  0  0  0  0  0  0  0  0  0  0
   -0.2173   16.6783    3.5893 F   0  0  0  0  0  0  0  0  0  0  0  0
   -2.3076   17.5443    3.4610 F   0  0  0  0  0  0  0  0  0  0  0  0
   -2.6276   14.9741    2.8972 F   0  0  0  0  0  0  0  0  0  0  0  0
   -0.7091   14.8997    1.8047 F   0  0  0  0  0  0  0  0  0  0  0  0
   -3.5456   16.8065    0.9061 F   0  0  0  0  0  0  0  0  0  0  0  0
   -1.5488   16.8078   -0.0270 F   0  0  0  0  0  0  0  0  0  0  0  0
   -1.8811   13.9410   -0.4234 F   0  0  0  0  0  0  0  0  0  0  0  0
   -3.7917   14.0998    0.6527 F   0  0  0  0  0  0  0  0  0  0  0  0
  1  2  1  0
  2  3  1  0
  3  4  1  0
  4  5  1  0
  5  6  1  0
  5  7  1  0
  5  8  1  0
  8  9  2  0
  8 10  2  0
  8 11  1  0
  4 12  1  0
  4 13  1  0
  3 14  1  0
  3 15  1  0
  2 16  1  0
  2 17  1  0
  1 18  1  0
 18 19  1  0
 19 20  1  0
 20 21  1  0
 20 22  1  0
 20 23  1  0
 19 24  1  0
 19 25  1  0
 18 26  1  0
 18 27  1  0
  1 28  1  0
  1 29  1  0
M  END
$$$$
