
     RDKit          3D

 29 28  0  0  0  0  0  0  0  0999 V2000
    4.3165  -14.7124    9.8452 C   0  0  0  0  0  0  0  0  0  0  0  0
    3.4167  -15.6514   10.5712 C   0  0  0  0  0  0  0  0  0  0  0  0
    3.9953  -16.1498   11.8553 C   0  0  0  0  0  0  0  0  0  0  0  0
    3.2207  -17.0467   12.7262 C   0  0  0  0  0  0  0  0  0  0  0  0
    3.8546  -17.5177   13.9880 C   0  0  0  0  0  0  0  0  0  0  0  0
    4.4545  -16.4553   14.6863 F   0  0  0  0  0  0  0  0  0  0  0  0
    4.7732  -18.4961   13.9241 F   0  0  0  0  0  0  0  0  0  0  0  0
    2.5091  -18.1111   15.0323 S   0  0  0  0  0  0  0  0  0  0  0  0
    1.6121  -16.9687   15.4154 O   0  0  0  0  0  0  0  0  0  0  0  0
    1.6961  -19.1300   14.3239 O   0  0  0  0  0  0  0  0  0  0  0  0
    3.1622  -18.7277   16.4642 O   0  0  0  0  0  0  0  0  0  0  0  0
    2.1348  -16.2210   13.2018 F   0  0  0  0  0  0  0  0  0  0  0  0
    2.5640  -18.0684   12.0884 F   0  0  0  0  0  0  0  0  0  0  0  0
    5.2433  -16.7450   11.5895 F   0  0  0  0  0  0  0  0  0  0  0  0
    4.3615  -15.0479   12.6728 F   0  0  0  0  0  0  0  0  0  0  0  0
    2.1758  -15.0488   10.7801 F   0  0  0  0  0  0  0  0  0  0  0  0
    3.1670  -16.7820    9.7639 F   0  0  0  0  0  0  0  0  0  0  0  0
    3.8724  -14.2636    8.4995 C   0  0  0  0  0  0  0  0  0  0  0  0
    4.6788  -13.2996    7.7363 C   0  0  0  0  0  0  0  0  0  0  0  0
    4.2438  -12.9780    6.3440 C   0  0  0  0  0  0  0  0  0  0  0  0
    3.0694  -12.2139    6.4872 F   0  0  0  0  0  0  0  0  0  0  0  0
    3.9129  -14.0055    5.5347 F   0  0  0  0  0  0  0  0  0  0  0  0
    5.2111  -12.1611    5.7549 F   0  0  0  0  0  0  0  0  0  0  0  0
    5.0068  -12.1308    8.4092 F   0  0  0  0  0  0  0  0  0  0  0  0
    5.9427  -13.9396    7.5533 F   0  0  0  0  0  0  0  0  0  0  0  0
    2.6081  -13.6654    8.6913 F   0  0  0  0  0  0  0  0  0  0  0  0
    3.5746  -15.3717    7.6852 F   0  0  0  0  0  0  0  0  0  0  0  0
    5.5729  -15.2939    9.8342 F   0  0  0  0  0  0  0  0  0  0  0  0
    4.4845  -13.5599   10.6358 F   0  0  0  0  0  0  0  0  0  0  0  0
  1  2  1  0
  2  3  1  0
  3  4  1  0
  4  5  1  0
  5  6  1  0
  5  7  1  0
  5  8  1  0
  8  9  2  0
  8 10  2  0
  8 11  1  0
  4 12  1  0
  4 13  1  0
  3 14  1  0
  3 15  1  0
  2 16  1  0
  2 17  1  0
  1 18  1  0
 18 19  1  0
 19 20  1  0
 20 21  1  0
 20 22  1  0
 20 23  1  0
 19 24  1  0
 19 25  1  0
 18 26  1  0
 18 27  1  0
  1 28  1  0
  1 29  1  0
M  END
$$$$
