
     RDKit          3D

 29 28  0  0  0  0  0  0  0  0999 V2000
  -12.9124  -10.9824    2.7701 C   0  0  0  0  0  0  0  0  0  0  0  0
  -14.0925  -10.4688    3.5198 C   0  0  0  0  0  0  0  0  0  0  0  0
  -15.2643  -10.1685    2.6430 C   0  0  0  0  0  0  0  0  0  0  0  0
  -16.6173  -10.0698    3.2108 C   0  0  0  0  0  0  0  0  0  0  0  0
  -17.7758  -10.1592    2.2804 C   0  0  0  0  0  0  0  0  0  0  0  0
  -17.7617  -11.3669    1.5611 F   0  0  0  0  0  0  0  0  0  0  0  0
  -17.9562   -9.1816    1.3765 F   0  0  0  0  0  0  0  0  0  0  0  0
  -19.2490  -10.2088    3.3197 S   0  0  0  0  0  0  0  0  0  0  0  0
  -19.1800  -11.3818    4.2555 O   0  0  0  0  0  0  0  0  0  0  0  0
  -19.3721   -8.9702    4.1269 O   0  0  0  0  0  0  0  0  0  0  0  0
  -20.6028  -10.4420    2.3349 O   0  0  0  0  0  0  0  0  0  0  0  0
  -16.7515  -11.2684    4.0060 F   0  0  0  0  0  0  0  0  0  0  0  0
  -16.7988   -9.0735    4.1363 F   0  0  0  0  0  0  0  0  0  0  0  0
  -14.9946   -8.9959    1.9116 F   0  0  0  0  0  0  0  0  0  0  0  0
  -15.3531  -11.1441    1.6149 F   0  0  0  0  0  0  0  0  0  0  0  0
  -14.4380  -11.3683    4.5289 F   0  0  0  0  0  0  0  0  0  0  0  0
  -13.7470   -9.2669    4.1742 F   0  0  0  0  0  0  0  0  0  0  0  0
  -11.7062  -11.3226    3.5694 C   0  0  0  0  0  0  0  0  0  0  0  0
  -10.4567  -11.7089    2.8976 C   0  0  0  0  0  0  0  0  0  0  0  0
   -9.5311  -10.6172    2.4703 C   0  0  0  0  0  0  0  0  0  0  0  0
   -9.0329  -11.0201    1.2161 F   0  0  0  0  0  0  0  0  0  0  0  0
   -8.4446  -10.3784    3.2336 F   0  0  0  0  0  0  0  0  0  0  0  0
  -10.2781   -9.4536    2.2751 F   0  0  0  0  0  0  0  0  0  0  0  0
   -9.7365  -12.7228    3.5137 F   0  0  0  0  0  0  0  0  0  0  0  0
  -10.8690  -12.3007    1.6646 F   0  0  0  0  0  0  0  0  0  0  0  0
  -12.0788  -12.4154    4.3819 F   0  0  0  0  0  0  0  0  0  0  0  0
  -11.4377  -10.3105    4.5092 F   0  0  0  0  0  0  0  0  0  0  0  0
  -12.6535  -10.0695    1.7620 F   0  0  0  0  0  0  0  0  0  0  0  0
  -13.2988  -12.1470    2.0802 F   0  0  0  0  0  0  0  0  0  0  0  0
  1  2  1  0
  2  3  1  0
  3  4  1  0
  4  5  1  0
  5  6  1  0
  5  7  1  0
  5  8  1  0
  8  9  2  0
  8 10  2  0
  8 11  1  0
  4 12  1  0
  4 13  1  0
  3 14  1  0
  3 15  1  0
  2 16  1  0
  2 17  1  0
  1 18  1  0
 18 19  1  0
 19 20  1  0
 20 21  1  0
 20 22  1  0
 20 23  1  0
 19 24  1  0
 19 25  1  0
 18 26  1  0
 18 27  1  0
  1 28  1  0
  1 29  1  0
M  END
$$$$
