
     RDKit          3D

 29 28  0  0  0  0  0  0  0  0999 V2000
   -4.3645   12.9405   -2.8599 C   0  0  0  0  0  0  0  0  0  0  0  0
   -5.5047   13.2055   -1.9390 C   0  0  0  0  0  0  0  0  0  0  0  0
   -6.7155   13.7357   -2.6355 C   0  0  0  0  0  0  0  0  0  0  0  0
   -7.7813   14.4065   -1.8760 C   0  0  0  0  0  0  0  0  0  0  0  0
   -8.6732   15.3498   -2.6043 C   0  0  0  0  0  0  0  0  0  0  0  0
   -9.3920   14.6937   -3.6187 F   0  0  0  0  0  0  0  0  0  0  0  0
   -8.1348   16.4440   -3.1682 F   0  0  0  0  0  0  0  0  0  0  0  0
   -9.8957   15.9106   -1.4026 S   0  0  0  0  0  0  0  0  0  0  0  0
   -9.2120   16.5930   -0.2523 O   0  0  0  0  0  0  0  0  0  0  0  0
  -10.8467   16.8681   -2.0190 O   0  0  0  0  0  0  0  0  0  0  0  0
  -10.6973   14.5630   -0.7714 O   0  0  0  0  0  0  0  0  0  0  0  0
   -8.6784   13.3347   -1.5105 F   0  0  0  0  0  0  0  0  0  0  0  0
   -7.4088   14.9151   -0.6576 F   0  0  0  0  0  0  0  0  0  0  0  0
   -6.3023   14.5845   -3.6802 F   0  0  0  0  0  0  0  0  0  0  0  0
   -7.3563   12.6851   -3.3442 F   0  0  0  0  0  0  0  0  0  0  0  0
   -5.8064   12.0501   -1.2174 F   0  0  0  0  0  0  0  0  0  0  0  0
   -5.1222   14.1704   -0.9826 F   0  0  0  0  0  0  0  0  0  0  0  0
   -3.1491   13.7771   -2.6803 C   0  0  0  0  0  0  0  0  0  0  0  0
   -1.9588   13.5430   -3.5111 C   0  0  0  0  0  0  0  0  0  0  0  0
   -0.9852   14.6656   -3.6626 C   0  0  0  0  0  0  0  0  0  0  0  0
   -0.4488   14.8703   -2.3766 F   0  0  0  0  0  0  0  0  0  0  0  0
   -1.4635   15.8654   -4.0525 F   0  0  0  0  0  0  0  0  0  0  0  0
    0.0548   14.2415   -4.4925 F   0  0  0  0  0  0  0  0  0  0  0  0
   -1.2781   12.3600   -3.2590 F   0  0  0  0  0  0  0  0  0  0  0  0
   -2.4639   13.3563   -4.8342 F   0  0  0  0  0  0  0  0  0  0  0  0
   -2.7462   13.5877   -1.3406 F   0  0  0  0  0  0  0  0  0  0  0  0
   -3.4829   15.1435   -2.7170 F   0  0  0  0  0  0  0  0  0  0  0  0
   -4.8720   12.9931   -4.1469 F   0  0  0  0  0  0  0  0  0  0  0  0
   -3.9737   11.5971   -2.7055 F   0  0  0  0  0  0  0  0  0  0  0  0
  1  2  1  0
  2  3  1  0
  3  4  1  0
  4  5  1  0
  5  6  1  0
  5  7  1  0
  5  8  1  0
  8  9  2  0
  8 10  2  0
  8 11  1  0
  4 12  1  0
  4 13  1  0
  3 14  1  0
  3 15  1  0
  2 16  1  0
  2 17  1  0
  1 18  1  0
 18 19  1  0
 19 20  1  0
 20 21  1  0
 20 22  1  0
 20 23  1  0
 19 24  1  0
 19 25  1  0
 18 26  1  0
 18 27  1  0
  1 28  1  0
  1 29  1  0
M  END
$$$$
