
     RDKit          3D

 29 28  0  0  0  0  0  0  0  0999 V2000
    3.9981    2.7917   -8.5288 C   0  0  0  0  0  0  0  0  0  0  0  0
    4.7905    2.4284   -9.7737 C   0  0  0  0  0  0  0  0  0  0  0  0
    4.6756    1.0743  -10.3049 C   0  0  0  0  0  0  0  0  0  0  0  0
    5.6418    0.7283  -11.3836 C   0  0  0  0  0  0  0  0  0  0  0  0
    5.7371   -0.6437  -11.8966 C   0  0  0  0  0  0  0  0  0  0  0  0
    4.5844   -1.1917  -12.3901 F   0  0  0  0  0  0  0  0  0  0  0  0
    6.1987   -1.5505  -10.9376 F   0  0  0  0  0  0  0  0  0  0  0  0
    6.9367   -0.7717  -13.2347 S   0  0  0  0  0  0  0  0  0  0  0  0
    7.1106   -2.1880  -13.6800 O   0  0  0  0  0  0  0  0  0  0  0  0
    8.2578   -0.2445  -12.8018 O   0  0  0  0  0  0  0  0  0  0  0  0
    6.3635    0.1492  -14.5258 O   0  0  0  0  0  0  0  0  0  0  0  0
    6.9408    1.1399  -10.9907 F   0  0  0  0  0  0  0  0  0  0  0  0
    5.3881    1.5816  -12.4870 F   0  0  0  0  0  0  0  0  0  0  0  0
    3.3732    0.7607  -10.6636 F   0  0  0  0  0  0  0  0  0  0  0  0
    4.9690    0.1205   -9.2803 F   0  0  0  0  0  0  0  0  0  0  0  0
    4.2622    3.3007  -10.7600 F   0  0  0  0  0  0  0  0  0  0  0  0
    6.0935    2.8133   -9.6240 F   0  0  0  0  0  0  0  0  0  0  0  0
    3.9113    4.2008   -8.1625 C   0  0  0  0  0  0  0  0  0  0  0  0
    3.3983    4.5432   -6.8126 C   0  0  0  0  0  0  0  0  0  0  0  0
    3.2200    5.9606   -6.4291 C   0  0  0  0  0  0  0  0  0  0  0  0
    4.2077    6.8301   -6.8062 F   0  0  0  0  0  0  0  0  0  0  0  0
    2.0479    6.4899   -7.0087 F   0  0  0  0  0  0  0  0  0  0  0  0
    3.0325    6.0145   -5.0470 F   0  0  0  0  0  0  0  0  0  0  0  0
    4.2354    3.9681   -5.8411 F   0  0  0  0  0  0  0  0  0  0  0  0
    2.1739    3.9002   -6.6202 F   0  0  0  0  0  0  0  0  0  0  0  0
    5.2643    4.6705   -8.1142 F   0  0  0  0  0  0  0  0  0  0  0  0
    3.3345    5.0154   -9.1224 F   0  0  0  0  0  0  0  0  0  0  0  0
    2.7354    2.1878   -8.7162 F   0  0  0  0  0  0  0  0  0  0  0  0
    4.5267    2.0932   -7.4317 F   0  0  0  0  0  0  0  0  0  0  0  0
  1  2  1  0
  2  3  1  0
  3  4  1  0
  4  5  1  0
  5  6  1  0
  5  7  1  0
  5  8  1  0
  8  9  2  0
  8 10  2  0
  8 11  1  0
  4 12  1  0
  4 13  1  0
  3 14  1  0
  3 15  1  0
  2 16  1  0
  2 17  1  0
  1 18  1  0
 18 19  1  0
 19 20  1  0
 20 21  1  0
 20 22  1  0
 20 23  1  0
 19 24  1  0
 19 25  1  0
 18 26  1  0
 18 27  1  0
  1 28  1  0
  1 29  1  0
M  END
$$$$
