
     RDKit          3D

 29 28  0  0  0  0  0  0  0  0999 V2000
    5.8196    6.9565   -4.3217 C   0  0  0  0  0  0  0  0  0  0  0  0
    4.6308    6.5954   -5.1969 C   0  0  0  0  0  0  0  0  0  0  0  0
    4.8746    5.8886   -6.4499 C   0  0  0  0  0  0  0  0  0  0  0  0
    3.7090    5.8056   -7.3725 C   0  0  0  0  0  0  0  0  0  0  0  0
    3.8577    5.2548   -8.7249 C   0  0  0  0  0  0  0  0  0  0  0  0
    4.3258    3.9720   -8.8129 F   0  0  0  0  0  0  0  0  0  0  0  0
    4.7092    6.0171   -9.5305 F   0  0  0  0  0  0  0  0  0  0  0  0
    2.2932    5.2536   -9.6184 S   0  0  0  0  0  0  0  0  0  0  0  0
    2.1543    6.4671  -10.4802 O   0  0  0  0  0  0  0  0  0  0  0  0
    1.1507    5.2130   -8.6677 O   0  0  0  0  0  0  0  0  0  0  0  0
    2.2600    3.8762  -10.5907 O   0  0  0  0  0  0  0  0  0  0  0  0
    3.1158    7.0888   -7.4852 F   0  0  0  0  0  0  0  0  0  0  0  0
    2.6876    5.0698   -6.7202 F   0  0  0  0  0  0  0  0  0  0  0  0
    5.4566    4.6464   -6.2464 F   0  0  0  0  0  0  0  0  0  0  0  0
    5.8573    6.5852   -7.2212 F   0  0  0  0  0  0  0  0  0  0  0  0
    3.8765    5.7200   -4.3738 F   0  0  0  0  0  0  0  0  0  0  0  0
    3.8323    7.6910   -5.3714 F   0  0  0  0  0  0  0  0  0  0  0  0
    5.5501    7.5209   -3.0040 C   0  0  0  0  0  0  0  0  0  0  0  0
    6.6373    8.2713   -2.3278 C   0  0  0  0  0  0  0  0  0  0  0  0
    6.3742    8.9514   -1.0408 C   0  0  0  0  0  0  0  0  0  0  0  0
    5.3712    9.8829   -1.0297 F   0  0  0  0  0  0  0  0  0  0  0  0
    5.9961    8.0185   -0.0525 F   0  0  0  0  0  0  0  0  0  0  0  0
    7.5688    9.5245   -0.6022 F   0  0  0  0  0  0  0  0  0  0  0  0
    7.1358    9.2511   -3.2034 F   0  0  0  0  0  0  0  0  0  0  0  0
    7.7225    7.4144   -2.1342 F   0  0  0  0  0  0  0  0  0  0  0  0
    4.5536    8.5293   -3.2131 F   0  0  0  0  0  0  0  0  0  0  0  0
    4.9331    6.6547   -2.1169 F   0  0  0  0  0  0  0  0  0  0  0  0
    6.6017    5.7818   -4.2733 F   0  0  0  0  0  0  0  0  0  0  0  0
    6.6406    7.8586   -5.0168 F   0  0  0  0  0  0  0  0  0  0  0  0
  1  2  1  0
  2  3  1  0
  3  4  1  0
  4  5  1  0
  5  6  1  0
  5  7  1  0
  5  8  1  0
  8  9  2  0
  8 10  2  0
  8 11  1  0
  4 12  1  0
  4 13  1  0
  3 14  1  0
  3 15  1  0
  2 16  1  0
  2 17  1  0
  1 18  1  0
 18 19  1  0
 19 20  1  0
 20 21  1  0
 20 22  1  0
 20 23  1  0
 19 24  1  0
 19 25  1  0
 18 26  1  0
 18 27  1  0
  1 28  1  0
  1 29  1  0
M  END
$$$$
