
     RDKit          3D

 29 28  0  0  0  0  0  0  0  0999 V2000
    2.9843    5.4149   -9.9064 C   0  0  0  0  0  0  0  0  0  0  0  0
    3.7485    4.3591  -10.6882 C   0  0  0  0  0  0  0  0  0  0  0  0
    3.9427    3.0457  -10.0831 C   0  0  0  0  0  0  0  0  0  0  0  0
    4.6942    2.0654  -10.9145 C   0  0  0  0  0  0  0  0  0  0  0  0
    4.8995    0.6877  -10.4516 C   0  0  0  0  0  0  0  0  0  0  0  0
    3.7722   -0.0547  -10.2271 F   0  0  0  0  0  0  0  0  0  0  0  0
    5.6328    0.6183   -9.2631 F   0  0  0  0  0  0  0  0  0  0  0  0
    5.8748   -0.2699  -11.6254 S   0  0  0  0  0  0  0  0  0  0  0  0
    6.0983   -1.6662  -11.1405 O   0  0  0  0  0  0  0  0  0  0  0  0
    7.1970    0.3721  -11.8497 O   0  0  0  0  0  0  0  0  0  0  0  0
    5.0230   -0.3177  -13.0800 O   0  0  0  0  0  0  0  0  0  0  0  0
    5.9618    2.6111  -11.2408 F   0  0  0  0  0  0  0  0  0  0  0  0
    4.0695    2.0017  -12.1855 F   0  0  0  0  0  0  0  0  0  0  0  0
    2.7573    2.5088   -9.6038 F   0  0  0  0  0  0  0  0  0  0  0  0
    4.7455    3.1637   -8.9052 F   0  0  0  0  0  0  0  0  0  0  0  0
    2.9438    4.1636  -11.8402 F   0  0  0  0  0  0  0  0  0  0  0  0
    4.9181    4.8861  -11.1601 F   0  0  0  0  0  0  0  0  0  0  0  0
    2.6240    6.6478  -10.5974 C   0  0  0  0  0  0  0  0  0  0  0  0
    2.2621    7.8304   -9.7770 C   0  0  0  0  0  0  0  0  0  0  0  0
    1.7753    9.0628  -10.4344 C   0  0  0  0  0  0  0  0  0  0  0  0
    1.0640    9.9364   -9.6566 F   0  0  0  0  0  0  0  0  0  0  0  0
    2.8558    9.8279  -10.9213 F   0  0  0  0  0  0  0  0  0  0  0  0
    1.0245    8.6902  -11.5504 F   0  0  0  0  0  0  0  0  0  0  0  0
    3.3672    8.2046   -8.9937 F   0  0  0  0  0  0  0  0  0  0  0  0
    1.3016    7.4495   -8.8379 F   0  0  0  0  0  0  0  0  0  0  0  0
    3.8173    7.0792  -11.2634 F   0  0  0  0  0  0  0  0  0  0  0  0
    1.7275    6.4874  -11.6407 F   0  0  0  0  0  0  0  0  0  0  0  0
    1.8700    4.7317   -9.3720 F   0  0  0  0  0  0  0  0  0  0  0  0
    3.7242    5.7616   -8.7647 F   0  0  0  0  0  0  0  0  0  0  0  0
  1  2  1  0
  2  3  1  0
  3  4  1  0
  4  5  1  0
  5  6  1  0
  5  7  1  0
  5  8  1  0
  8  9  2  0
  8 10  2  0
  8 11  1  0
  4 12  1  0
  4 13  1  0
  3 14  1  0
  3 15  1  0
  2 16  1  0
  2 17  1  0
  1 18  1  0
 18 19  1  0
 19 20  1  0
 20 21  1  0
 20 22  1  0
 20 23  1  0
 19 24  1  0
 19 25  1  0
 18 26  1  0
 18 27  1  0
  1 28  1  0
  1 29  1  0
M  END
$$$$
