
     RDKit          3D

 29 28  0  0  0  0  0  0  0  0999 V2000
   -9.8358   -0.3613   -1.5185 C   0  0  0  0  0  0  0  0  0  0  0  0
   -8.8217    0.6644   -1.1506 C   0  0  0  0  0  0  0  0  0  0  0  0
   -8.6780    1.0007    0.2815 C   0  0  0  0  0  0  0  0  0  0  0  0
   -8.1162    2.3192    0.6523 C   0  0  0  0  0  0  0  0  0  0  0  0
   -7.9778    2.5960    2.1156 C   0  0  0  0  0  0  0  0  0  0  0  0
   -6.8481    2.0117    2.6599 F   0  0  0  0  0  0  0  0  0  0  0  0
   -9.0884    2.2983    2.8583 F   0  0  0  0  0  0  0  0  0  0  0  0
   -7.7389    4.3733    2.2977 S   0  0  0  0  0  0  0  0  0  0  0  0
   -6.4442    4.7441    1.6330 O   0  0  0  0  0  0  0  0  0  0  0  0
   -8.8337    5.1159    1.6082 O   0  0  0  0  0  0  0  0  0  0  0  0
   -7.6485    4.6808    3.9350 O   0  0  0  0  0  0  0  0  0  0  0  0
   -8.7421    3.3888    0.0187 F   0  0  0  0  0  0  0  0  0  0  0  0
   -6.8010    2.3497    0.1419 F   0  0  0  0  0  0  0  0  0  0  0  0
   -7.9760   -0.0033    0.9325 F   0  0  0  0  0  0  0  0  0  0  0  0
   -9.9838    0.9720    0.8128 F   0  0  0  0  0  0  0  0  0  0  0  0
   -7.5916    0.3598   -1.7479 F   0  0  0  0  0  0  0  0  0  0  0  0
   -9.1914    1.8713   -1.7861 F   0  0  0  0  0  0  0  0  0  0  0  0
  -10.0870   -0.1920   -3.0262 C   0  0  0  0  0  0  0  0  0  0  0  0
  -11.3339   -0.9318   -3.4459 C   0  0  0  0  0  0  0  0  0  0  0  0
  -11.6836   -0.5340   -4.8772 C   0  0  0  0  0  0  0  0  0  0  0  0
  -10.5780   -0.7727   -5.6604 F   0  0  0  0  0  0  0  0  0  0  0  0
  -12.7848   -1.2546   -5.3025 F   0  0  0  0  0  0  0  0  0  0  0  0
  -11.9651    0.8133   -4.9585 F   0  0  0  0  0  0  0  0  0  0  0  0
  -11.1439   -2.2860   -3.3840 F   0  0  0  0  0  0  0  0  0  0  0  0
  -12.4212   -0.5968   -2.6650 F   0  0  0  0  0  0  0  0  0  0  0  0
  -10.2063    1.1673   -3.2301 F   0  0  0  0  0  0  0  0  0  0  0  0
   -9.0085   -0.6558   -3.7144 F   0  0  0  0  0  0  0  0  0  0  0  0
  -11.0794   -0.0967   -0.9438 F   0  0  0  0  0  0  0  0  0  0  0  0
   -9.4702   -1.6656   -1.3505 F   0  0  0  0  0  0  0  0  0  0  0  0
  1  2  1  0
  2  3  1  0
  3  4  1  0
  4  5  1  0
  5  6  1  0
  5  7  1  0
  5  8  1  0
  8  9  2  0
  8 10  2  0
  8 11  1  0
  4 12  1  0
  4 13  1  0
  3 14  1  0
  3 15  1  0
  2 16  1  0
  2 17  1  0
  1 18  1  0
 18 19  1  0
 19 20  1  0
 20 21  1  0
 20 22  1  0
 20 23  1  0
 19 24  1  0
 19 25  1  0
 18 26  1  0
 18 27  1  0
  1 28  1  0
  1 29  1  0
M  END
$$$$
