
     RDKit          3D

 29 28  0  0  0  0  0  0  0  0999 V2000
   -9.2442   -3.7429   -0.4792 C   0  0  0  0  0  0  0  0  0  0  0  0
   -9.4140   -2.2928   -0.7690 C   0  0  0  0  0  0  0  0  0  0  0  0
   -9.8574   -1.9145   -2.1273 C   0  0  0  0  0  0  0  0  0  0  0  0
  -10.3005   -0.5233   -2.3722 C   0  0  0  0  0  0  0  0  0  0  0  0
  -10.8266   -0.2232   -3.7397 C   0  0  0  0  0  0  0  0  0  0  0  0
  -11.9287   -0.9944   -4.0633 F   0  0  0  0  0  0  0  0  0  0  0  0
   -9.8870   -0.2717   -4.7339 F   0  0  0  0  0  0  0  0  0  0  0  0
  -11.4170    1.4796   -3.7177 S   0  0  0  0  0  0  0  0  0  0  0  0
  -10.2689    2.3703   -3.3383 O   0  0  0  0  0  0  0  0  0  0  0  0
  -11.8778    1.8851   -5.0774 O   0  0  0  0  0  0  0  0  0  0  0  0
  -12.6102    1.5597   -2.5544 O   0  0  0  0  0  0  0  0  0  0  0  0
   -9.3611    0.4336   -1.9989 F   0  0  0  0  0  0  0  0  0  0  0  0
  -11.3829   -0.2901   -1.4976 F   0  0  0  0  0  0  0  0  0  0  0  0
  -10.8335   -2.7971   -2.5666 F   0  0  0  0  0  0  0  0  0  0  0  0
   -8.7408   -2.1191   -2.9637 F   0  0  0  0  0  0  0  0  0  0  0  0
  -10.1935   -1.6915    0.2278 F   0  0  0  0  0  0  0  0  0  0  0  0
   -8.1533   -1.6772   -0.5988 F   0  0  0  0  0  0  0  0  0  0  0  0
   -8.4712   -3.8255    0.8476 C   0  0  0  0  0  0  0  0  0  0  0  0
   -8.3170   -5.2614    1.2869 C   0  0  0  0  0  0  0  0  0  0  0  0
   -7.3156   -5.3190    2.4373 C   0  0  0  0  0  0  0  0  0  0  0  0
   -6.4715   -4.2399    2.3124 F   0  0  0  0  0  0  0  0  0  0  0  0
   -7.9937   -5.3093    3.6426 F   0  0  0  0  0  0  0  0  0  0  0  0
   -6.5438   -6.4590    2.3610 F   0  0  0  0  0  0  0  0  0  0  0  0
   -9.5151   -5.7780    1.7010 F   0  0  0  0  0  0  0  0  0  0  0  0
   -7.8103   -6.0581    0.2807 F   0  0  0  0  0  0  0  0  0  0  0  0
   -7.2500   -3.2327    0.6008 F   0  0  0  0  0  0  0  0  0  0  0  0
   -9.1335   -3.1098    1.7968 F   0  0  0  0  0  0  0  0  0  0  0  0
   -8.3954   -4.3635   -1.3963 F   0  0  0  0  0  0  0  0  0  0  0  0
  -10.3878   -4.4621   -0.2842 F   0  0  0  0  0  0  0  0  0  0  0  0
  1  2  1  0
  2  3  1  0
  3  4  1  0
  4  5  1  0
  5  6  1  0
  5  7  1  0
  5  8  1  0
  8  9  2  0
  8 10  2  0
  8 11  1  0
  4 12  1  0
  4 13  1  0
  3 14  1  0
  3 15  1  0
  2 16  1  0
  2 17  1  0
  1 18  1  0
 18 19  1  0
 19 20  1  0
 20 21  1  0
 20 22  1  0
 20 23  1  0
 19 24  1  0
 19 25  1  0
 18 26  1  0
 18 27  1  0
  1 28  1  0
  1 29  1  0
M  END
$$$$
