
     RDKit          3D

 29 28  0  0  0  0  0  0  0  0999 V2000
  -11.1671   -0.3625   -3.7605 C   0  0  0  0  0  0  0  0  0  0  0  0
  -12.1854    0.7226   -3.7992 C   0  0  0  0  0  0  0  0  0  0  0  0
  -12.6773    1.1513   -5.1254 C   0  0  0  0  0  0  0  0  0  0  0  0
  -13.7680    2.1499   -5.1937 C   0  0  0  0  0  0  0  0  0  0  0  0
  -14.1192    2.6601   -6.5550 C   0  0  0  0  0  0  0  0  0  0  0  0
  -14.6194    1.6676   -7.3790 F   0  0  0  0  0  0  0  0  0  0  0  0
  -13.1174    3.3541   -7.1783 F   0  0  0  0  0  0  0  0  0  0  0  0
  -15.4655    3.8405   -6.3469 S   0  0  0  0  0  0  0  0  0  0  0  0
  -14.9581    4.9924   -5.5277 O   0  0  0  0  0  0  0  0  0  0  0  0
  -15.8925    4.3771   -7.6718 O   0  0  0  0  0  0  0  0  0  0  0  0
  -16.6790    3.0452   -5.5234 O   0  0  0  0  0  0  0  0  0  0  0  0
  -13.6052    3.2131   -4.3102 F   0  0  0  0  0  0  0  0  0  0  0  0
  -14.9316    1.5017   -4.7277 F   0  0  0  0  0  0  0  0  0  0  0  0
  -13.0167    0.0401   -5.8833 F   0  0  0  0  0  0  0  0  0  0  0  0
  -11.5706    1.7409   -5.7703 F   0  0  0  0  0  0  0  0  0  0  0  0
  -13.2331    0.4301   -2.9163 F   0  0  0  0  0  0  0  0  0  0  0  0
  -11.5994    1.8730   -3.2244 F   0  0  0  0  0  0  0  0  0  0  0  0
  -10.9591   -0.7000   -2.2747 C   0  0  0  0  0  0  0  0  0  0  0  0
   -9.7359   -1.5650   -2.0901 C   0  0  0  0  0  0  0  0  0  0  0  0
   -9.3203   -1.5224   -0.6222 C   0  0  0  0  0  0  0  0  0  0  0  0
   -8.0124   -1.0992   -0.5691 F   0  0  0  0  0  0  0  0  0  0  0  0
  -10.1663   -0.6788    0.0745 F   0  0  0  0  0  0  0  0  0  0  0  0
   -9.3713   -2.7803   -0.0598 F   0  0  0  0  0  0  0  0  0  0  0  0
   -9.9928   -2.8598   -2.4524 F   0  0  0  0  0  0  0  0  0  0  0  0
   -8.6603   -1.1015   -2.8197 F   0  0  0  0  0  0  0  0  0  0  0  0
  -10.8267    0.5153   -1.6351 F   0  0  0  0  0  0  0  0  0  0  0  0
  -12.0642   -1.3377   -1.8016 F   0  0  0  0  0  0  0  0  0  0  0  0
   -9.9124    0.0829   -4.1778 F   0  0  0  0  0  0  0  0  0  0  0  0
  -11.5094   -1.5395   -4.3608 F   0  0  0  0  0  0  0  0  0  0  0  0
  1  2  1  0
  2  3  1  0
  3  4  1  0
  4  5  1  0
  5  6  1  0
  5  7  1  0
  5  8  1  0
  8  9  2  0
  8 10  2  0
  8 11  1  0
  4 12  1  0
  4 13  1  0
  3 14  1  0
  3 15  1  0
  2 16  1  0
  2 17  1  0
  1 18  1  0
 18 19  1  0
 19 20  1  0
 20 21  1  0
 20 22  1  0
 20 23  1  0
 19 24  1  0
 19 25  1  0
 18 26  1  0
 18 27  1  0
  1 28  1  0
  1 29  1  0
M  END
$$$$
