
     RDKit          3D

 29 28  0  0  0  0  0  0  0  0999 V2000
  -10.6460   -0.2995   -3.4877 C   0  0  0  0  0  0  0  0  0  0  0  0
  -11.9465   -0.0651   -4.1729 C   0  0  0  0  0  0  0  0  0  0  0  0
  -12.1287    1.2253   -4.8704 C   0  0  0  0  0  0  0  0  0  0  0  0
  -13.4749    1.5811   -5.3733 C   0  0  0  0  0  0  0  0  0  0  0  0
  -13.6113    2.9240   -6.0175 C   0  0  0  0  0  0  0  0  0  0  0  0
  -12.9918    2.9832   -7.2531 F   0  0  0  0  0  0  0  0  0  0  0  0
  -13.2291    3.9750   -5.2282 F   0  0  0  0  0  0  0  0  0  0  0  0
  -15.3657    3.1792   -6.3429 S   0  0  0  0  0  0  0  0  0  0  0  0
  -15.5236    4.4821   -7.0730 O   0  0  0  0  0  0  0  0  0  0  0  0
  -15.8912    2.0966   -7.2247 O   0  0  0  0  0  0  0  0  0  0  0  0
  -16.1230    3.2611   -4.8586 O   0  0  0  0  0  0  0  0  0  0  0  0
  -14.4865    1.3937   -4.4358 F   0  0  0  0  0  0  0  0  0  0  0  0
  -13.7805    0.6491   -6.3877 F   0  0  0  0  0  0  0  0  0  0  0  0
  -11.2037    1.3397   -5.8978 F   0  0  0  0  0  0  0  0  0  0  0  0
  -11.7913    2.2188   -3.9284 F   0  0  0  0  0  0  0  0  0  0  0  0
  -12.2622   -1.1573   -4.9914 F   0  0  0  0  0  0  0  0  0  0  0  0
  -12.9576   -0.1066   -3.1864 F   0  0  0  0  0  0  0  0  0  0  0  0
  -10.8750   -1.4805   -2.5297 C   0  0  0  0  0  0  0  0  0  0  0  0
   -9.7390   -1.5946   -1.5423 C   0  0  0  0  0  0  0  0  0  0  0  0
   -9.7620   -0.3763   -0.6232 C   0  0  0  0  0  0  0  0  0  0  0  0
  -11.0496    0.1074   -0.6008 F   0  0  0  0  0  0  0  0  0  0  0  0
   -9.3227   -0.7385    0.6371 F   0  0  0  0  0  0  0  0  0  0  0  0
   -8.9521    0.6257   -1.1144 F   0  0  0  0  0  0  0  0  0  0  0  0
   -9.8558   -2.7329   -0.7910 F   0  0  0  0  0  0  0  0  0  0  0  0
   -8.5089   -1.5958   -2.1675 F   0  0  0  0  0  0  0  0  0  0  0  0
  -12.0745   -1.2182   -1.9006 F   0  0  0  0  0  0  0  0  0  0  0  0
  -10.9892   -2.6277   -3.2527 F   0  0  0  0  0  0  0  0  0  0  0  0
  -10.3047    0.7541   -2.6391 F   0  0  0  0  0  0  0  0  0  0  0  0
   -9.5981   -0.6672   -4.2812 F   0  0  0  0  0  0  0  0  0  0  0  0
  1  2  1  0
  2  3  1  0
  3  4  1  0
  4  5  1  0
  5  6  1  0
  5  7  1  0
  5  8  1  0
  8  9  2  0
  8 10  2  0
  8 11  1  0
  4 12  1  0
  4 13  1  0
  3 14  1  0
  3 15  1  0
  2 16  1  0
  2 17  1  0
  1 18  1  0
 18 19  1  0
 19 20  1  0
 20 21  1  0
 20 22  1  0
 20 23  1  0
 19 24  1  0
 19 25  1  0
 18 26  1  0
 18 27  1  0
  1 28  1  0
  1 29  1  0
M  END
$$$$
