
     RDKit          3D

 12 12  0  0  0  0  0  0  0  0999 V2000
   33.3823  -44.4574    3.9929 C   0  0  0  0  0  0  0  0  0  0  0  0
   31.9547  -44.1083    3.9030 C   0  0  0  0  0  0  0  0  0  0  0  0
   30.9698  -45.0262    3.8384 N   0  0  0  0  0  0  0  0  0  0  0  0
   29.8101  -44.3541    3.7662 C   0  0  0  0  0  0  0  0  0  0  0  0
   30.0569  -43.0106    3.7848 C   0  0  0  0  0  0  0  0  0  0  0  0
   31.3931  -42.8754    3.8701 N   0  0  0  0  0  0  0  0  0  0  0  0
   32.1208  -41.6415    3.9200 C   0  0  0  0  0  0  0  0  0  0  0  0
   32.5933  -41.2422    5.2918 C   0  0  0  0  0  0  0  0  0  0  0  0
   33.4565  -40.1233    5.1963 O   0  0  0  0  0  0  0  0  0  0  0  0
   29.0435  -42.0163    3.7222 N   0  0  0  0  0  0  0  0  0  0  0  0
   29.2738  -40.7943    3.6484 O   0  0  0  0  0  0  0  0  0  0  0  0
   27.7346  -42.4315    3.7442 O   0  0  0  0  0  0  0  0  0  0  0  0
  1  2  1  0
  2  3  2  0
  3  4  1  0
  4  5  2  0
  5  6  1  0
  6  7  1  0
  7  8  1  0
  8  9  1  0
  5 10  1  0
 10 11  2  0
 10 12  1  0
  6  2  1  0
M  CHG  2  10   1  12  -1
M  END
$$$$
