
     RDKit          3D

 12 12  0  0  0  0  0  0  0  0999 V2000
   24.3975  -50.7893   -4.4525 C   0  0  0  0  0  0  0  0  0  0  0  0
   23.7321  -51.6224   -3.4370 C   0  0  0  0  0  0  0  0  0  0  0  0
   24.2816  -52.7381   -2.9174 N   0  0  0  0  0  0  0  0  0  0  0  0
   23.4030  -53.2335   -2.0318 C   0  0  0  0  0  0  0  0  0  0  0  0
   22.2961  -52.4340   -1.9879 C   0  0  0  0  0  0  0  0  0  0  0  0
   22.5167  -51.4385   -2.8662 N   0  0  0  0  0  0  0  0  0  0  0  0
   21.6275  -50.3541   -3.1626 C   0  0  0  0  0  0  0  0  0  0  0  0
   21.8057  -49.1367   -2.2962 C   0  0  0  0  0  0  0  0  0  0  0  0
   20.9077  -48.1203   -2.7046 O   0  0  0  0  0  0  0  0  0  0  0  0
   21.1738  -52.6771   -1.1507 N   0  0  0  0  0  0  0  0  0  0  0  0
   20.1295  -51.9984   -1.1754 O   0  0  0  0  0  0  0  0  0  0  0  0
   21.2491  -53.7230   -0.2639 O   0  0  0  0  0  0  0  0  0  0  0  0
  1  2  1  0
  2  3  2  0
  3  4  1  0
  4  5  2  0
  5  6  1  0
  6  7  1  0
  7  8  1  0
  8  9  1  0
  5 10  1  0
 10 11  2  0
 10 12  1  0
  6  2  1  0
M  CHG  2  10   1  12  -1
M  END
$$$$
