
     RDKit          3D

 12 12  0  0  0  0  0  0  0  0999 V2000
    3.0464  -44.2110    0.3755 C   0  0  0  0  0  0  0  0  0  0  0  0
    4.5019  -44.4267    0.3185 C   0  0  0  0  0  0  0  0  0  0  0  0
    5.0692  -45.6488    0.2824 N   0  0  0  0  0  0  0  0  0  0  0  0
    6.3980  -45.4643    0.2351 C   0  0  0  0  0  0  0  0  0  0  0  0
    6.6755  -44.1266    0.2412 C   0  0  0  0  0  0  0  0  0  0  0  0
    5.4874  -43.4968    0.2932 N   0  0  0  0  0  0  0  0  0  0  0  0
    5.2775  -42.0791    0.3174 C   0  0  0  0  0  0  0  0  0  0  0  0
    5.1678  -41.4805    1.6936 C   0  0  0  0  0  0  0  0  0  0  0  0
    4.8640  -40.1005    1.5950 O   0  0  0  0  0  0  0  0  0  0  0  0
    7.9900  -43.5884    0.1992 N   0  0  0  0  0  0  0  0  0  0  0  0
    8.2404  -42.3681    0.1898 O   0  0  0  0  0  0  0  0  0  0  0  0
    9.0435  -44.4689    0.1676 O   0  0  0  0  0  0  0  0  0  0  0  0
  1  2  1  0
  2  3  2  0
  3  4  1  0
  4  5  2  0
  5  6  1  0
  6  7  1  0
  7  8  1  0
  8  9  1  0
  5 10  1  0
 10 11  2  0
 10 12  1  0
  6  2  1  0
M  CHG  2  10   1  12  -1
M  END
$$$$
