
     RDKit          3D

 12 12  0  0  0  0  0  0  0  0999 V2000
   27.1465  -50.3157    4.6087 C   0  0  0  0  0  0  0  0  0  0  0  0
   26.9688  -49.0521    3.8740 C   0  0  0  0  0  0  0  0  0  0  0  0
   27.5555  -47.8944    4.2375 N   0  0  0  0  0  0  0  0  0  0  0  0
   27.1733  -46.9639    3.3488 C   0  0  0  0  0  0  0  0  0  0  0  0
   26.3447  -47.5288    2.4212 C   0  0  0  0  0  0  0  0  0  0  0  0
   26.2283  -48.8256    2.7618 N   0  0  0  0  0  0  0  0  0  0  0  0
   25.4554  -49.8184    2.0751 C   0  0  0  0  0  0  0  0  0  0  0  0
   26.2219  -50.6271    1.0638 C   0  0  0  0  0  0  0  0  0  0  0  0
   25.3889  -51.6384    0.5256 O   0  0  0  0  0  0  0  0  0  0  0  0
   25.7612  -46.8160    1.3390 N   0  0  0  0  0  0  0  0  0  0  0  0
   25.9417  -45.6012    1.1305 O   0  0  0  0  0  0  0  0  0  0  0  0
   24.9518  -47.5113    0.4744 O   0  0  0  0  0  0  0  0  0  0  0  0
  1  2  1  0
  2  3  2  0
  3  4  1  0
  4  5  2  0
  5  6  1  0
  6  7  1  0
  7  8  1  0
  8  9  1  0
  5 10  1  0
 10 11  2  0
 10 12  1  0
  6  2  1  0
M  CHG  2  10   1  12  -1
M  END
$$$$
