
     RDKit          3D

 12 12  0  0  0  0  0  0  0  0999 V2000
   21.5063  -53.9069    6.9167 C   0  0  0  0  0  0  0  0  0  0  0  0
   21.7741  -53.1970    8.1786 C   0  0  0  0  0  0  0  0  0  0  0  0
   21.1236  -53.4599    9.3295 N   0  0  0  0  0  0  0  0  0  0  0  0
   21.6211  -52.6309   10.2606 C   0  0  0  0  0  0  0  0  0  0  0  0
   22.5867  -51.8417    9.7029 C   0  0  0  0  0  0  0  0  0  0  0  0
   22.6691  -52.2060    8.4100 N   0  0  0  0  0  0  0  0  0  0  0  0
   23.5510  -51.6515    7.4255 C   0  0  0  0  0  0  0  0  0  0  0  0
   22.9660  -50.5257    6.6164 C   0  0  0  0  0  0  0  0  0  0  0  0
   23.5661  -50.4929    5.3338 O   0  0  0  0  0  0  0  0  0  0  0  0
   23.3145  -50.8525   10.4180 N   0  0  0  0  0  0  0  0  0  0  0  0
   23.1067  -50.5661   11.6125 O   0  0  0  0  0  0  0  0  0  0  0  0
   24.3046  -50.1753    9.7494 O   0  0  0  0  0  0  0  0  0  0  0  0
  1  2  1  0
  2  3  2  0
  3  4  1  0
  4  5  2  0
  5  6  1  0
  6  7  1  0
  7  8  1  0
  8  9  1  0
  5 10  1  0
 10 11  2  0
 10 12  1  0
  6  2  1  0
M  CHG  2  10   1  12  -1
M  END
$$$$
