
     RDKit          3D

 29 28  0  0  0  0  0  0  0  0999 V2000
    1.6158    3.3101   -9.7427 C   0  0  0  0  0  0  0  0  0  0  0  0
    0.9159    4.0015  -10.8597 C   0  0  0  0  0  0  0  0  0  0  0  0
    0.2565    5.2574  -10.2459 C   0  0  0  0  0  0  0  0  0  0  0  0
   -0.9641    5.6573  -10.9705 C   0  0  0  0  0  0  0  0  0  0  0  0
   -1.6861    6.8810  -10.5108 C   0  0  0  0  0  0  0  0  0  0  0  0
   -1.8799    6.8557   -9.1311 F   0  0  0  0  0  0  0  0  0  0  0  0
   -0.7416    7.9503  -10.6486 F   0  0  0  0  0  0  0  0  0  0  0  0
   -3.0792    7.3954  -11.4192 S   0  0  0  0  0  0  0  0  0  0  0  0
   -4.1610    6.3468  -11.4637 O   0  0  0  0  0  0  0  0  0  0  0  0
   -2.6903    7.6079  -12.8820 O   0  0  0  0  0  0  0  0  0  0  0  0
   -3.6732    8.8411  -10.8508 O   0  0  0  0  0  0  0  0  0  0  0  0
   -1.9286    4.6237  -10.9312 F   0  0  0  0  0  0  0  0  0  0  0  0
   -0.7561    5.8384  -12.3347 F   0  0  0  0  0  0  0  0  0  0  0  0
   -0.0386    5.0091   -8.9233 F   0  0  0  0  0  0  0  0  0  0  0  0
    1.1513    6.3077  -10.2822 F   0  0  0  0  0  0  0  0  0  0  0  0
    0.0052    3.2395  -11.5127 F   0  0  0  0  0  0  0  0  0  0  0  0
    1.8355    4.4970  -11.7786 F   0  0  0  0  0  0  0  0  0  0  0  0
    2.1903    1.9923  -10.0103 C   0  0  0  0  0  0  0  0  0  0  0  0
    2.8014    1.1990   -8.9301 C   0  0  0  0  0  0  0  0  0  0  0  0
    3.1363   -0.2241   -9.2320 C   0  0  0  0  0  0  0  0  0  0  0  0
    2.1196   -0.8177   -9.9994 F   0  0  0  0  0  0  0  0  0  0  0  0
    3.3628   -1.0292   -8.1632 F   0  0  0  0  0  0  0  0  0  0  0  0
    4.2641   -0.3430  -10.0367 F   0  0  0  0  0  0  0  0  0  0  0  0
    1.8149    1.1394   -7.9258 F   0  0  0  0  0  0  0  0  0  0  0  0
    3.8420    1.8562   -8.2789 F   0  0  0  0  0  0  0  0  0  0  0  0
    3.1392    2.1271  -11.0129 F   0  0  0  0  0  0  0  0  0  0  0  0
    1.1887    1.2026  -10.5814 F   0  0  0  0  0  0  0  0  0  0  0  0
    2.7020    4.1475   -9.4204 F   0  0  0  0  0  0  0  0  0  0  0  0
    0.8102    3.3998   -8.6151 F   0  0  0  0  0  0  0  0  0  0  0  0
  1  2  1  0
  2  3  1  0
  3  4  1  0
  4  5  1  0
  5  6  1  0
  5  7  1  0
  5  8  1  0
  8  9  2  0
  8 10  2  0
  8 11  1  0
  4 12  1  0
  4 13  1  0
  3 14  1  0
  3 15  1  0
  2 16  1  0
  2 17  1  0
  1 18  1  0
 18 19  1  0
 19 20  1  0
 20 21  1  0
 20 22  1  0
 20 23  1  0
 19 24  1  0
 19 25  1  0
 18 26  1  0
 18 27  1  0
  1 28  1  0
  1 29  1  0
M  END
$$$$
