
     RDKit          3D

 29 28  0  0  0  0  0  0  0  0999 V2000
   -3.6214    6.6160  -11.7349 C   0  0  0  0  0  0  0  0  0  0  0  0
   -5.0924    6.5988  -11.5082 C   0  0  0  0  0  0  0  0  0  0  0  0
   -5.6108    7.9942  -11.9241 C   0  0  0  0  0  0  0  0  0  0  0  0
   -7.0816    8.0837  -11.8640 C   0  0  0  0  0  0  0  0  0  0  0  0
   -7.7141    9.4207  -12.0703 C   0  0  0  0  0  0  0  0  0  0  0  0
   -7.0239   10.4105  -11.3734 F   0  0  0  0  0  0  0  0  0  0  0  0
   -7.4227    9.7701  -13.4294 F   0  0  0  0  0  0  0  0  0  0  0  0
   -9.4466    9.5317  -11.9418 S   0  0  0  0  0  0  0  0  0  0  0  0
  -10.1376    8.2403  -12.2975 O   0  0  0  0  0  0  0  0  0  0  0  0
   -9.9747   10.5425  -12.9595 O   0  0  0  0  0  0  0  0  0  0  0  0
   -9.9098   10.0601  -10.4344 O   0  0  0  0  0  0  0  0  0  0  0  0
   -7.5572    7.6408  -10.6079 F   0  0  0  0  0  0  0  0  0  0  0  0
   -7.7189    7.2286  -12.7584 F   0  0  0  0  0  0  0  0  0  0  0  0
   -5.0452    8.9463  -11.1046 F   0  0  0  0  0  0  0  0  0  0  0  0
   -5.2079    8.2653  -13.2161 F   0  0  0  0  0  0  0  0  0  0  0  0
   -5.4646    6.2954  -10.2409 F   0  0  0  0  0  0  0  0  0  0  0  0
   -5.7106    5.7146  -12.3867 F   0  0  0  0  0  0  0  0  0  0  0  0
   -2.8868    5.3673  -11.5368 C   0  0  0  0  0  0  0  0  0  0  0  0
   -1.4858    5.2357  -11.9723 C   0  0  0  0  0  0  0  0  0  0  0  0
   -0.7281    4.0440  -11.4880 C   0  0  0  0  0  0  0  0  0  0  0  0
    0.6436    4.1895  -11.7563 F   0  0  0  0  0  0  0  0  0  0  0  0
   -1.1151    2.8418  -11.9848 F   0  0  0  0  0  0  0  0  0  0  0  0
   -0.7779    3.9116  -10.1047 F   0  0  0  0  0  0  0  0  0  0  0  0
   -0.8275    6.3451  -11.4054 F   0  0  0  0  0  0  0  0  0  0  0  0
   -1.3051    5.4540  -13.3355 F   0  0  0  0  0  0  0  0  0  0  0  0
   -3.6042    4.3414  -12.1338 F   0  0  0  0  0  0  0  0  0  0  0  0
   -2.9206    5.0689  -10.1720 F   0  0  0  0  0  0  0  0  0  0  0  0
   -3.4671    6.9439  -13.0964 F   0  0  0  0  0  0  0  0  0  0  0  0
   -3.1039    7.7302  -11.0873 F   0  0  0  0  0  0  0  0  0  0  0  0
  1  2  1  0
  2  3  1  0
  3  4  1  0
  4  5  1  0
  5  6  1  0
  5  7  1  0
  5  8  1  0
  8  9  2  0
  8 10  2  0
  8 11  1  0
  4 12  1  0
  4 13  1  0
  3 14  1  0
  3 15  1  0
  2 16  1  0
  2 17  1  0
  1 18  1  0
 18 19  1  0
 19 20  1  0
 20 21  1  0
 20 22  1  0
 20 23  1  0
 19 24  1  0
 19 25  1  0
 18 26  1  0
 18 27  1  0
  1 28  1  0
  1 29  1  0
M  END
$$$$
