
     RDKit          3D

 29 28  0  0  0  0  0  0  0  0999 V2000
   -0.4504    4.7252  -11.2440 C   0  0  0  0  0  0  0  0  0  0  0  0
   -0.2919    5.8361  -12.2219 C   0  0  0  0  0  0  0  0  0  0  0  0
   -1.7211    6.2826  -12.6052 C   0  0  0  0  0  0  0  0  0  0  0  0
   -1.7212    7.5037  -13.4321 C   0  0  0  0  0  0  0  0  0  0  0  0
   -3.0090    8.2418  -13.5966 C   0  0  0  0  0  0  0  0  0  0  0  0
   -3.9983    7.4074  -14.1129 F   0  0  0  0  0  0  0  0  0  0  0  0
   -3.4884    8.4656  -12.2645 F   0  0  0  0  0  0  0  0  0  0  0  0
   -2.9556    9.8226  -14.3238 S   0  0  0  0  0  0  0  0  0  0  0  0
   -2.2349   10.8307  -13.4659 O   0  0  0  0  0  0  0  0  0  0  0  0
   -4.3741   10.3762  -14.4570 O   0  0  0  0  0  0  0  0  0  0  0  0
   -2.3023    9.7647  -15.8521 O   0  0  0  0  0  0  0  0  0  0  0  0
   -1.2912    7.2149  -14.7480 F   0  0  0  0  0  0  0  0  0  0  0  0
   -0.7994    8.4546  -13.0040 F   0  0  0  0  0  0  0  0  0  0  0  0
   -2.3474    5.2561  -13.2775 F   0  0  0  0  0  0  0  0  0  0  0  0
   -2.4458    6.5310  -11.4571 F   0  0  0  0  0  0  0  0  0  0  0  0
    0.4344    5.5206  -13.3217 F   0  0  0  0  0  0  0  0  0  0  0  0
    0.2745    6.9488  -11.6080 F   0  0  0  0  0  0  0  0  0  0  0  0
    0.3985    4.7390  -10.0535 C   0  0  0  0  0  0  0  0  0  0  0  0
    0.2247    3.7372   -8.9878 C   0  0  0  0  0  0  0  0  0  0  0  0
    1.1532    3.8115   -7.8211 C   0  0  0  0  0  0  0  0  0  0  0  0
    2.4795    3.9747   -8.2561 F   0  0  0  0  0  0  0  0  0  0  0  0
    1.1315    2.7577   -6.9662 F   0  0  0  0  0  0  0  0  0  0  0  0
    0.9267    4.9363   -7.0355 F   0  0  0  0  0  0  0  0  0  0  0  0
    0.5083    2.5028   -9.6052 F   0  0  0  0  0  0  0  0  0  0  0  0
   -1.1003    3.5694   -8.5941 F   0  0  0  0  0  0  0  0  0  0  0  0
    0.3015    5.9911   -9.4648 F   0  0  0  0  0  0  0  0  0  0  0  0
    1.7267    4.6559  -10.4804 F   0  0  0  0  0  0  0  0  0  0  0  0
   -1.7745    4.8387  -10.7764 F   0  0  0  0  0  0  0  0  0  0  0  0
   -0.4740    3.5324  -11.9548 F   0  0  0  0  0  0  0  0  0  0  0  0
  1  2  1  0
  2  3  1  0
  3  4  1  0
  4  5  1  0
  5  6  1  0
  5  7  1  0
  5  8  1  0
  8  9  2  0
  8 10  2  0
  8 11  1  0
  4 12  1  0
  4 13  1  0
  3 14  1  0
  3 15  1  0
  2 16  1  0
  2 17  1  0
  1 18  1  0
 18 19  1  0
 19 20  1  0
 20 21  1  0
 20 22  1  0
 20 23  1  0
 19 24  1  0
 19 25  1  0
 18 26  1  0
 18 27  1  0
  1 28  1  0
  1 29  1  0
M  END
$$$$
