
     RDKit          3D

 29 28  0  0  0  0  0  0  0  0999 V2000
   -0.9738    5.0719  -10.8857 C   0  0  0  0  0  0  0  0  0  0  0  0
   -0.8709    6.1072  -11.9502 C   0  0  0  0  0  0  0  0  0  0  0  0
   -2.3121    6.5973  -12.2181 C   0  0  0  0  0  0  0  0  0  0  0  0
   -2.3521    7.7118  -13.1831 C   0  0  0  0  0  0  0  0  0  0  0  0
   -3.6225    8.4862  -13.3112 C   0  0  0  0  0  0  0  0  0  0  0  0
   -4.6881    7.6455  -13.6265 F   0  0  0  0  0  0  0  0  0  0  0  0
   -3.9571    8.8856  -11.9760 F   0  0  0  0  0  0  0  0  0  0  0  0
   -3.5859    9.9675  -14.2249 S   0  0  0  0  0  0  0  0  0  0  0  0
   -4.9486   10.5963  -14.3635 O   0  0  0  0  0  0  0  0  0  0  0  0
   -3.1498    9.6762  -15.6606 O   0  0  0  0  0  0  0  0  0  0  0  0
   -2.4935   11.0466  -13.5859 O   0  0  0  0  0  0  0  0  0  0  0  0
   -2.0682    7.2506  -14.4896 F   0  0  0  0  0  0  0  0  0  0  0  0
   -1.3581    8.6611  -12.9642 F   0  0  0  0  0  0  0  0  0  0  0  0
   -3.0664    5.5422  -12.6826 F   0  0  0  0  0  0  0  0  0  0  0  0
   -2.8778    7.0232  -11.0334 F   0  0  0  0  0  0  0  0  0  0  0  0
   -0.2766    5.6849  -13.0926 F   0  0  0  0  0  0  0  0  0  0  0  0
   -0.1975    7.2285  -11.4761 F   0  0  0  0  0  0  0  0  0  0  0  0
    0.1598    4.9156   -9.9755 C   0  0  0  0  0  0  0  0  0  0  0  0
    0.0530    4.0753   -8.7704 C   0  0  0  0  0  0  0  0  0  0  0  0
    1.3024    3.8399   -7.9878 C   0  0  0  0  0  0  0  0  0  0  0  0
    1.8985    2.6244   -8.3647 F   0  0  0  0  0  0  0  0  0  0  0  0
    1.1736    3.8289   -6.6368 F   0  0  0  0  0  0  0  0  0  0  0  0
    2.2850    4.7845   -8.2630 F   0  0  0  0  0  0  0  0  0  0  0  0
   -0.3251    2.8055   -9.2500 F   0  0  0  0  0  0  0  0  0  0  0  0
   -1.0228    4.4111   -7.9527 F   0  0  0  0  0  0  0  0  0  0  0  0
    0.5660    6.1770   -9.5662 F   0  0  0  0  0  0  0  0  0  0  0  0
    1.2362    4.4269  -10.7208 F   0  0  0  0  0  0  0  0  0  0  0  0
   -2.0592    5.4799  -10.0856 F   0  0  0  0  0  0  0  0  0  0  0  0
   -1.4429    3.9037  -11.4720 F   0  0  0  0  0  0  0  0  0  0  0  0
  1  2  1  0
  2  3  1  0
  3  4  1  0
  4  5  1  0
  5  6  1  0
  5  7  1  0
  5  8  1  0
  8  9  2  0
  8 10  2  0
  8 11  1  0
  4 12  1  0
  4 13  1  0
  3 14  1  0
  3 15  1  0
  2 16  1  0
  2 17  1  0
  1 18  1  0
 18 19  1  0
 19 20  1  0
 20 21  1  0
 20 22  1  0
 20 23  1  0
 19 24  1  0
 19 25  1  0
 18 26  1  0
 18 27  1  0
  1 28  1  0
  1 29  1  0
M  END
$$$$
