
     RDKit          3D

 29 28  0  0  0  0  0  0  0  0999 V2000
    1.0781    3.4135   -9.6719 C   0  0  0  0  0  0  0  0  0  0  0  0
    0.7934    4.4124  -10.7381 C   0  0  0  0  0  0  0  0  0  0  0  0
   -0.6352    4.9374  -10.4690 C   0  0  0  0  0  0  0  0  0  0  0  0
   -1.0499    5.9554  -11.4522 C   0  0  0  0  0  0  0  0  0  0  0  0
   -2.3475    6.6605  -11.2301 C   0  0  0  0  0  0  0  0  0  0  0  0
   -3.3924    5.7486  -11.0947 F   0  0  0  0  0  0  0  0  0  0  0  0
   -2.2624    7.1987   -9.9045 F   0  0  0  0  0  0  0  0  0  0  0  0
   -2.7173    8.0263  -12.2442 S   0  0  0  0  0  0  0  0  0  0  0  0
   -2.6702    7.6874  -13.7121 O   0  0  0  0  0  0  0  0  0  0  0  0
   -1.6492    9.1049  -12.0649 O   0  0  0  0  0  0  0  0  0  0  0  0
   -4.1792    8.7059  -11.8358 O   0  0  0  0  0  0  0  0  0  0  0  0
   -1.1549    5.3882  -12.7434 F   0  0  0  0  0  0  0  0  0  0  0  0
   -0.1051    6.9621  -11.6293 F   0  0  0  0  0  0  0  0  0  0  0  0
   -1.5145    3.8770  -10.4868 F   0  0  0  0  0  0  0  0  0  0  0  0
   -0.6863    5.4988   -9.2091 F   0  0  0  0  0  0  0  0  0  0  0  0
    0.9110    3.9377  -12.0020 F   0  0  0  0  0  0  0  0  0  0  0  0
    1.6137    5.5267  -10.5937 F   0  0  0  0  0  0  0  0  0  0  0  0
    2.1513    2.4495   -9.9104 C   0  0  0  0  0  0  0  0  0  0  0  0
    2.5081    1.4463   -8.8925 C   0  0  0  0  0  0  0  0  0  0  0  0
    3.4075    0.3325   -9.3158 C   0  0  0  0  0  0  0  0  0  0  0  0
    3.6623   -0.5322   -8.2377 F   0  0  0  0  0  0  0  0  0  0  0  0
    4.6058    0.6927   -9.8412 F   0  0  0  0  0  0  0  0  0  0  0  0
    2.8155   -0.4942  -10.2643 F   0  0  0  0  0  0  0  0  0  0  0  0
    1.2884    0.8262   -8.5560 F   0  0  0  0  0  0  0  0  0  0  0  0
    2.8982    2.0027   -7.6772 F   0  0  0  0  0  0  0  0  0  0  0  0
    3.3058    3.1523  -10.2218 F   0  0  0  0  0  0  0  0  0  0  0  0
    1.8407    1.7520  -11.0808 F   0  0  0  0  0  0  0  0  0  0  0  0
    1.4830    4.1758   -8.5584 F   0  0  0  0  0  0  0  0  0  0  0  0
   -0.1337    2.8774   -9.2562 F   0  0  0  0  0  0  0  0  0  0  0  0
  1  2  1  0
  2  3  1  0
  3  4  1  0
  4  5  1  0
  5  6  1  0
  5  7  1  0
  5  8  1  0
  8  9  2  0
  8 10  2  0
  8 11  1  0
  4 12  1  0
  4 13  1  0
  3 14  1  0
  3 15  1  0
  2 16  1  0
  2 17  1  0
  1 18  1  0
 18 19  1  0
 19 20  1  0
 20 21  1  0
 20 22  1  0
 20 23  1  0
 19 24  1  0
 19 25  1  0
 18 26  1  0
 18 27  1  0
  1 28  1  0
  1 29  1  0
M  END
$$$$
