
     RDKit          3D

 29 28  0  0  0  0  0  0  0  0999 V2000
    1.6708    3.4480   -9.8183 C   0  0  0  0  0  0  0  0  0  0  0  0
    0.2613    3.8897  -10.0018 C   0  0  0  0  0  0  0  0  0  0  0  0
    0.3271    5.3516  -10.4995 C   0  0  0  0  0  0  0  0  0  0  0  0
   -1.0096    5.9655  -10.6057 C   0  0  0  0  0  0  0  0  0  0  0  0
   -1.1382    7.2437  -11.3672 C   0  0  0  0  0  0  0  0  0  0  0  0
   -0.2357    8.1957  -10.8974 F   0  0  0  0  0  0  0  0  0  0  0  0
   -0.6076    6.9625  -12.6686 F   0  0  0  0  0  0  0  0  0  0  0  0
   -2.7395    7.8601  -11.6611 S   0  0  0  0  0  0  0  0  0  0  0  0
   -2.7637    9.3593  -11.8151 O   0  0  0  0  0  0  0  0  0  0  0  0
   -3.6279    7.5846  -10.4481 O   0  0  0  0  0  0  0  0  0  0  0  0
   -3.4450    7.1148  -12.9698 O   0  0  0  0  0  0  0  0  0  0  0  0
   -1.5326    6.2469   -9.3222 F   0  0  0  0  0  0  0  0  0  0  0  0
   -1.9629    5.1102  -11.1507 F   0  0  0  0  0  0  0  0  0  0  0  0
    1.1168    6.0837   -9.6402 F   0  0  0  0  0  0  0  0  0  0  0  0
    0.9244    5.3847  -11.7433 F   0  0  0  0  0  0  0  0  0  0  0  0
   -0.5122    3.7836   -8.8940 F   0  0  0  0  0  0  0  0  0  0  0  0
   -0.3380    3.1875  -11.0426 F   0  0  0  0  0  0  0  0  0  0  0  0
    1.9051    2.0520   -9.4518 C   0  0  0  0  0  0  0  0  0  0  0  0
    3.1686    1.3796   -9.7999 C   0  0  0  0  0  0  0  0  0  0  0  0
    3.3279   -0.0414   -9.3708 C   0  0  0  0  0  0  0  0  0  0  0  0
    2.1090   -0.5515   -8.8924 F   0  0  0  0  0  0  0  0  0  0  0  0
    4.2701   -0.2826   -8.4243 F   0  0  0  0  0  0  0  0  0  0  0  0
    3.6395   -0.8831  -10.4329 F   0  0  0  0  0  0  0  0  0  0  0  0
    4.1601    2.0899   -9.0944 F   0  0  0  0  0  0  0  0  0  0  0  0
    3.5552    1.5746  -11.1232 F   0  0  0  0  0  0  0  0  0  0  0  0
    0.8717    1.2867   -9.9714 F   0  0  0  0  0  0  0  0  0  0  0  0
    1.7544    1.9476   -8.0664 F   0  0  0  0  0  0  0  0  0  0  0  0
    2.2739    3.6235  -11.0794 F   0  0  0  0  0  0  0  0  0  0  0  0
    2.3147    4.3948   -9.0325 F   0  0  0  0  0  0  0  0  0  0  0  0
  1  2  1  0
  2  3  1  0
  3  4  1  0
  4  5  1  0
  5  6  1  0
  5  7  1  0
  5  8  1  0
  8  9  2  0
  8 10  2  0
  8 11  1  0
  4 12  1  0
  4 13  1  0
  3 14  1  0
  3 15  1  0
  2 16  1  0
  2 17  1  0
  1 18  1  0
 18 19  1  0
 19 20  1  0
 20 21  1  0
 20 22  1  0
 20 23  1  0
 19 24  1  0
 19 25  1  0
 18 26  1  0
 18 27  1  0
  1 28  1  0
  1 29  1  0
M  END
$$$$
