
     RDKit          3D

 29 28  0  0  0  0  0  0  0  0999 V2000
    1.8920    2.9605   -9.6025 C   0  0  0  0  0  0  0  0  0  0  0  0
    1.2141    3.7180  -10.6898 C   0  0  0  0  0  0  0  0  0  0  0  0
    0.4496    4.8718  -10.0018 C   0  0  0  0  0  0  0  0  0  0  0  0
   -0.5974    5.4427  -10.8694 C   0  0  0  0  0  0  0  0  0  0  0  0
   -1.5894    6.3746  -10.2548 C   0  0  0  0  0  0  0  0  0  0  0  0
   -2.2337    5.7741   -9.1750 F   0  0  0  0  0  0  0  0  0  0  0  0
   -0.8064    7.3802   -9.5990 F   0  0  0  0  0  0  0  0  0  0  0  0
   -2.6482    7.2561  -11.3189 S   0  0  0  0  0  0  0  0  0  0  0  0
   -3.8438    7.8291  -10.6021 O   0  0  0  0  0  0  0  0  0  0  0  0
   -3.2428    6.3051  -12.3574 O   0  0  0  0  0  0  0  0  0  0  0  0
   -1.8256    8.4406  -12.1474 O   0  0  0  0  0  0  0  0  0  0  0  0
   -1.3718    4.4162  -11.4582 F   0  0  0  0  0  0  0  0  0  0  0  0
   -0.0852    6.1193  -11.9726 F   0  0  0  0  0  0  0  0  0  0  0  0
   -0.1081    4.4063   -8.8312 F   0  0  0  0  0  0  0  0  0  0  0  0
    1.3378    5.8745   -9.6693 F   0  0  0  0  0  0  0  0  0  0  0  0
    0.3864    2.9749  -11.4640 F   0  0  0  0  0  0  0  0  0  0  0  0
    2.1511    4.3483  -11.5022 F   0  0  0  0  0  0  0  0  0  0  0  0
    2.6822    1.7890   -9.9786 C   0  0  0  0  0  0  0  0  0  0  0  0
    3.2876    0.9228   -8.9525 C   0  0  0  0  0  0  0  0  0  0  0  0
    2.8459   -0.5028   -8.9136 C   0  0  0  0  0  0  0  0  0  0  0  0
    3.3122   -1.1944  -10.0446 F   0  0  0  0  0  0  0  0  0  0  0  0
    1.5085   -0.7167   -8.8278 F   0  0  0  0  0  0  0  0  0  0  0  0
    3.4063   -1.2014   -7.8499 F   0  0  0  0  0  0  0  0  0  0  0  0
    2.8668    1.4716   -7.7249 F   0  0  0  0  0  0  0  0  0  0  0  0
    4.6720    1.0457   -8.8683 F   0  0  0  0  0  0  0  0  0  0  0  0
    3.7007    2.2045  -10.8234 F   0  0  0  0  0  0  0  0  0  0  0  0
    1.8760    0.9742  -10.7780 F   0  0  0  0  0  0  0  0  0  0  0  0
    2.8014    3.8747   -9.0349 F   0  0  0  0  0  0  0  0  0  0  0  0
    0.9711    2.7652   -8.5816 F   0  0  0  0  0  0  0  0  0  0  0  0
  1  2  1  0
  2  3  1  0
  3  4  1  0
  4  5  1  0
  5  6  1  0
  5  7  1  0
  5  8  1  0
  8  9  2  0
  8 10  2  0
  8 11  1  0
  4 12  1  0
  4 13  1  0
  3 14  1  0
  3 15  1  0
  2 16  1  0
  2 17  1  0
  1 18  1  0
 18 19  1  0
 19 20  1  0
 20 21  1  0
 20 22  1  0
 20 23  1  0
 19 24  1  0
 19 25  1  0
 18 26  1  0
 18 27  1  0
  1 28  1  0
  1 29  1  0
M  END
$$$$
