
     RDKit          3D

 29 28  0  0  0  0  0  0  0  0999 V2000
    3.4837   -8.1811   13.1004 C   0  0  0  0  0  0  0  0  0  0  0  0
    3.7794   -8.4015   11.6643 C   0  0  0  0  0  0  0  0  0  0  0  0
    4.1851   -9.8236   11.3676 C   0  0  0  0  0  0  0  0  0  0  0  0
    4.5313  -10.0216    9.9359 C   0  0  0  0  0  0  0  0  0  0  0  0
    4.9591  -11.3922    9.5888 C   0  0  0  0  0  0  0  0  0  0  0  0
    6.0631  -11.7700   10.4194 F   0  0  0  0  0  0  0  0  0  0  0  0
    4.0038  -12.3512    9.9065 F   0  0  0  0  0  0  0  0  0  0  0  0
    5.5732  -11.5835    7.9586 S   0  0  0  0  0  0  0  0  0  0  0  0
    6.6590  -10.5489    7.6709 O   0  0  0  0  0  0  0  0  0  0  0  0
    4.4225  -11.3744    6.9949 O   0  0  0  0  0  0  0  0  0  0  0  0
    6.1393  -13.1244    7.7133 O   0  0  0  0  0  0  0  0  0  0  0  0
    5.5520   -9.0830    9.6745 F   0  0  0  0  0  0  0  0  0  0  0  0
    3.4887   -9.6026    9.0923 F   0  0  0  0  0  0  0  0  0  0  0  0
    5.4558  -10.0077   12.0191 F   0  0  0  0  0  0  0  0  0  0  0  0
    3.2707  -10.6969   11.8054 F   0  0  0  0  0  0  0  0  0  0  0  0
    4.8167   -7.5890   11.2061 F   0  0  0  0  0  0  0  0  0  0  0  0
    2.6542   -8.1615   10.8709 F   0  0  0  0  0  0  0  0  0  0  0  0
    3.1312   -6.8340   13.5826 C   0  0  0  0  0  0  0  0  0  0  0  0
    2.7877   -6.7110   15.0484 C   0  0  0  0  0  0  0  0  0  0  0  0
    2.3949   -5.3631   15.5399 C   0  0  0  0  0  0  0  0  0  0  0  0
    1.3690   -4.8335   14.7566 F   0  0  0  0  0  0  0  0  0  0  0  0
    3.5024   -4.5316   15.1732 F   0  0  0  0  0  0  0  0  0  0  0  0
    2.2075   -5.2154   16.8723 F   0  0  0  0  0  0  0  0  0  0  0  0
    1.8320   -7.6601   15.4156 F   0  0  0  0  0  0  0  0  0  0  0  0
    3.9223   -7.0814   15.7844 F   0  0  0  0  0  0  0  0  0  0  0  0
    2.0682   -6.3245   12.8641 F   0  0  0  0  0  0  0  0  0  0  0  0
    4.2382   -5.9520   13.4605 F   0  0  0  0  0  0  0  0  0  0  0  0
    4.5028   -8.7187   13.9157 F   0  0  0  0  0  0  0  0  0  0  0  0
    2.3930   -9.0516   13.3905 F   0  0  0  0  0  0  0  0  0  0  0  0
  1  2  1  0
  2  3  1  0
  3  4  1  0
  4  5  1  0
  5  6  1  0
  5  7  1  0
  5  8  1  0
  8  9  2  0
  8 10  2  0
  8 11  1  0
  4 12  1  0
  4 13  1  0
  3 14  1  0
  3 15  1  0
  2 16  1  0
  2 17  1  0
  1 18  1  0
 18 19  1  0
 19 20  1  0
 20 21  1  0
 20 22  1  0
 20 23  1  0
 19 24  1  0
 19 25  1  0
 18 26  1  0
 18 27  1  0
  1 28  1  0
  1 29  1  0
M  END
$$$$
