
     RDKit          3D

 29 28  0  0  0  0  0  0  0  0999 V2000
    3.0699    4.3916   -1.8668 C   0  0  0  0  0  0  0  0  0  0  0  0
    2.8809    5.5207   -0.9246 C   0  0  0  0  0  0  0  0  0  0  0  0
    2.7452    5.0648    0.5068 C   0  0  0  0  0  0  0  0  0  0  0  0
    2.3973    6.1832    1.4216 C   0  0  0  0  0  0  0  0  0  0  0  0
    2.0446    5.7693    2.7951 C   0  0  0  0  0  0  0  0  0  0  0  0
    0.9112    4.8948    2.7515 F   0  0  0  0  0  0  0  0  0  0  0  0
    3.0177    4.9688    3.3829 F   0  0  0  0  0  0  0  0  0  0  0  0
    1.5319    7.0715    3.8499 S   0  0  0  0  0  0  0  0  0  0  0  0
    0.2195    7.6757    3.3554 O   0  0  0  0  0  0  0  0  0  0  0  0
    2.6059    8.1405    3.8339 O   0  0  0  0  0  0  0  0  0  0  0  0
    1.3917    6.5463    5.4182 O   0  0  0  0  0  0  0  0  0  0  0  0
    1.3227    6.8474    0.7931 F   0  0  0  0  0  0  0  0  0  0  0  0
    3.4065    7.1606    1.4456 F   0  0  0  0  0  0  0  0  0  0  0  0
    1.5550    4.2556    0.5443 F   0  0  0  0  0  0  0  0  0  0  0  0
    3.8234    4.3822    0.9092 F   0  0  0  0  0  0  0  0  0  0  0  0
    1.7378    6.2664   -1.2136 F   0  0  0  0  0  0  0  0  0  0  0  0
    3.9799    6.3838   -0.9385 F   0  0  0  0  0  0  0  0  0  0  0  0
    2.8678    4.5953   -3.3121 C   0  0  0  0  0  0  0  0  0  0  0  0
    2.7948    3.3506   -4.1648 C   0  0  0  0  0  0  0  0  0  0  0  0
    3.0772    3.5081   -5.6167 C   0  0  0  0  0  0  0  0  0  0  0  0
    3.2175    2.2621   -6.2286 F   0  0  0  0  0  0  0  0  0  0  0  0
    4.4211    4.0035   -5.6498 F   0  0  0  0  0  0  0  0  0  0  0  0
    2.3111    4.3827   -6.3098 F   0  0  0  0  0  0  0  0  0  0  0  0
    3.5813    2.3317   -3.6241 F   0  0  0  0  0  0  0  0  0  0  0  0
    1.4896    2.8464   -4.0718 F   0  0  0  0  0  0  0  0  0  0  0  0
    3.8643    5.3961   -3.8331 F   0  0  0  0  0  0  0  0  0  0  0  0
    1.6078    5.2023   -3.5618 F   0  0  0  0  0  0  0  0  0  0  0  0
    2.3446    3.2555   -1.4479 F   0  0  0  0  0  0  0  0  0  0  0  0
    4.4150    3.9649   -1.6665 F   0  0  0  0  0  0  0  0  0  0  0  0
  1  2  1  0
  2  3  1  0
  3  4  1  0
  4  5  1  0
  5  6  1  0
  5  7  1  0
  5  8  1  0
  8  9  2  0
  8 10  2  0
  8 11  1  0
  4 12  1  0
  4 13  1  0
  3 14  1  0
  3 15  1  0
  2 16  1  0
  2 17  1  0
  1 18  1  0
 18 19  1  0
 19 20  1  0
 20 21  1  0
 20 22  1  0
 20 23  1  0
 19 24  1  0
 19 25  1  0
 18 26  1  0
 18 27  1  0
  1 28  1  0
  1 29  1  0
M  END
$$$$
