
     RDKit          3D

 29 28  0  0  0  0  0  0  0  0999 V2000
    1.3641   -5.1249   15.0268 C   0  0  0  0  0  0  0  0  0  0  0  0
    2.6166   -4.6151   15.6350 C   0  0  0  0  0  0  0  0  0  0  0  0
    3.3362   -5.6641   16.4455 C   0  0  0  0  0  0  0  0  0  0  0  0
    4.7087   -5.2374   16.8238 C   0  0  0  0  0  0  0  0  0  0  0  0
    5.4836   -6.2472   17.5735 C   0  0  0  0  0  0  0  0  0  0  0  0
    4.6774   -6.7739   18.6336 F   0  0  0  0  0  0  0  0  0  0  0  0
    5.7631   -7.3809   16.8186 F   0  0  0  0  0  0  0  0  0  0  0  0
    6.9047   -5.6292   18.3918 S   0  0  0  0  0  0  0  0  0  0  0  0
    6.5262   -4.4883   19.3337 O   0  0  0  0  0  0  0  0  0  0  0  0
    7.8627   -5.1060   17.3406 O   0  0  0  0  0  0  0  0  0  0  0  0
    7.6935   -6.8393   19.2095 O   0  0  0  0  0  0  0  0  0  0  0  0
    4.5288   -4.0610   17.5819 F   0  0  0  0  0  0  0  0  0  0  0  0
    5.4340   -4.7896   15.7069 F   0  0  0  0  0  0  0  0  0  0  0  0
    2.6637   -5.6991   17.7180 F   0  0  0  0  0  0  0  0  0  0  0  0
    3.3129   -6.8560   15.8378 F   0  0  0  0  0  0  0  0  0  0  0  0
    2.3894   -3.5381   16.4921 F   0  0  0  0  0  0  0  0  0  0  0  0
    3.5283   -4.2094   14.6567 F   0  0  0  0  0  0  0  0  0  0  0  0
    0.4926   -4.2159   14.2616 C   0  0  0  0  0  0  0  0  0  0  0  0
   -0.5674   -4.8631   13.4018 C   0  0  0  0  0  0  0  0  0  0  0  0
   -1.4199   -3.9587   12.5844 C   0  0  0  0  0  0  0  0  0  0  0  0
   -0.6323   -3.1305   11.7841 F   0  0  0  0  0  0  0  0  0  0  0  0
   -1.9442   -3.0296   13.5407 F   0  0  0  0  0  0  0  0  0  0  0  0
   -2.4758   -4.5096   11.9412 F   0  0  0  0  0  0  0  0  0  0  0  0
   -0.0144   -5.8647   12.6018 F   0  0  0  0  0  0  0  0  0  0  0  0
   -1.4380   -5.5605   14.2514 F   0  0  0  0  0  0  0  0  0  0  0  0
    1.2449   -3.3962   13.4445 F   0  0  0  0  0  0  0  0  0  0  0  0
   -0.2841   -3.4106   15.1371 F   0  0  0  0  0  0  0  0  0  0  0  0
    0.5903   -5.8282   15.9749 F   0  0  0  0  0  0  0  0  0  0  0  0
    1.7774   -6.1749   14.1560 F   0  0  0  0  0  0  0  0  0  0  0  0
  1  2  1  0
  2  3  1  0
  3  4  1  0
  4  5  1  0
  5  6  1  0
  5  7  1  0
  5  8  1  0
  8  9  2  0
  8 10  2  0
  8 11  1  0
  4 12  1  0
  4 13  1  0
  3 14  1  0
  3 15  1  0
  2 16  1  0
  2 17  1  0
  1 18  1  0
 18 19  1  0
 19 20  1  0
 20 21  1  0
 20 22  1  0
 20 23  1  0
 19 24  1  0
 19 25  1  0
 18 26  1  0
 18 27  1  0
  1 28  1  0
  1 29  1  0
M  END
$$$$
