
     RDKit          3D

 29 28  0  0  0  0  0  0  0  0999 V2000
    3.9522   -9.6479   10.6699 C   0  0  0  0  0  0  0  0  0  0  0  0
    5.1147  -10.0684    9.8511 C   0  0  0  0  0  0  0  0  0  0  0  0
    4.8163  -11.2759    8.9980 C   0  0  0  0  0  0  0  0  0  0  0  0
    6.0414  -11.8363    8.3702 C   0  0  0  0  0  0  0  0  0  0  0  0
    5.8398  -13.1150    7.6586 C   0  0  0  0  0  0  0  0  0  0  0  0
    5.2393  -14.0639    8.5475 F   0  0  0  0  0  0  0  0  0  0  0  0
    4.8981  -13.0217    6.6399 F   0  0  0  0  0  0  0  0  0  0  0  0
    7.3117  -13.9056    7.1297 S   0  0  0  0  0  0  0  0  0  0  0  0
    8.2891  -14.0512    8.2940 O   0  0  0  0  0  0  0  0  0  0  0  0
    7.9469  -13.0469    6.0546 O   0  0  0  0  0  0  0  0  0  0  0  0
    6.9810  -15.3798    6.4423 O   0  0  0  0  0  0  0  0  0  0  0  0
    6.9621  -11.9777    9.4301 F   0  0  0  0  0  0  0  0  0  0  0  0
    6.6637  -10.8978    7.5299 F   0  0  0  0  0  0  0  0  0  0  0  0
    4.4393  -12.3168    9.9184 F   0  0  0  0  0  0  0  0  0  0  0  0
    3.8481  -11.0228    8.1098 F   0  0  0  0  0  0  0  0  0  0  0  0
    6.2219  -10.3987   10.6330 F   0  0  0  0  0  0  0  0  0  0  0  0
    5.4961   -9.0648    8.9565 F   0  0  0  0  0  0  0  0  0  0  0  0
    4.1654   -8.9386   11.9438 C   0  0  0  0  0  0  0  0  0  0  0  0
    2.9265   -8.4715   12.6708 C   0  0  0  0  0  0  0  0  0  0  0  0
    3.1224   -7.8387   14.0027 C   0  0  0  0  0  0  0  0  0  0  0  0
    1.9323   -7.2690   14.4566 F   0  0  0  0  0  0  0  0  0  0  0  0
    3.9114   -6.6780   13.7147 F   0  0  0  0  0  0  0  0  0  0  0  0
    3.7880   -8.5525   14.9405 F   0  0  0  0  0  0  0  0  0  0  0  0
    2.1502   -7.6499   11.8515 F   0  0  0  0  0  0  0  0  0  0  0  0
    2.1105   -9.5916   12.8853 F   0  0  0  0  0  0  0  0  0  0  0  0
    4.9753   -7.8367   11.7558 F   0  0  0  0  0  0  0  0  0  0  0  0
    4.7673   -9.7979   12.9017 F   0  0  0  0  0  0  0  0  0  0  0  0
    3.0620  -10.7237   10.8758 F   0  0  0  0  0  0  0  0  0  0  0  0
    3.1873   -8.8000    9.8169 F   0  0  0  0  0  0  0  0  0  0  0  0
  1  2  1  0
  2  3  1  0
  3  4  1  0
  4  5  1  0
  5  6  1  0
  5  7  1  0
  5  8  1  0
  8  9  2  0
  8 10  2  0
  8 11  1  0
  4 12  1  0
  4 13  1  0
  3 14  1  0
  3 15  1  0
  2 16  1  0
  2 17  1  0
  1 18  1  0
 18 19  1  0
 19 20  1  0
 20 21  1  0
 20 22  1  0
 20 23  1  0
 19 24  1  0
 19 25  1  0
 18 26  1  0
 18 27  1  0
  1 28  1  0
  1 29  1  0
M  END
$$$$
