
     RDKit          3D

 29 28  0  0  0  0  0  0  0  0999 V2000
    1.1548   -5.1261   14.8229 C   0  0  0  0  0  0  0  0  0  0  0  0
    2.3779   -4.5966   15.4727 C   0  0  0  0  0  0  0  0  0  0  0  0
    3.1990   -5.6775   16.1304 C   0  0  0  0  0  0  0  0  0  0  0  0
    4.4424   -5.1426   16.7445 C   0  0  0  0  0  0  0  0  0  0  0  0
    5.1994   -6.1189   17.5543 C   0  0  0  0  0  0  0  0  0  0  0  0
    4.3576   -6.6266   18.5959 F   0  0  0  0  0  0  0  0  0  0  0  0
    5.5247   -7.2698   16.8450 F   0  0  0  0  0  0  0  0  0  0  0  0
    6.5774   -5.4569   18.4109 S   0  0  0  0  0  0  0  0  0  0  0  0
    7.6975   -6.4909   18.5031 O   0  0  0  0  0  0  0  0  0  0  0  0
    6.1284   -5.0876   19.8104 O   0  0  0  0  0  0  0  0  0  0  0  0
    7.1131   -4.0621   17.6881 O   0  0  0  0  0  0  0  0  0  0  0  0
    4.0207   -4.0450   17.5246 F   0  0  0  0  0  0  0  0  0  0  0  0
    5.2765   -4.5487   15.7823 F   0  0  0  0  0  0  0  0  0  0  0  0
    2.4415   -6.0925   17.2822 F   0  0  0  0  0  0  0  0  0  0  0  0
    3.4306   -6.6960   15.2941 F   0  0  0  0  0  0  0  0  0  0  0  0
    2.0876   -3.6597   16.4647 F   0  0  0  0  0  0  0  0  0  0  0  0
    3.2292   -3.9963   14.5412 F   0  0  0  0  0  0  0  0  0  0  0  0
    0.3262   -4.2447   13.9816 C   0  0  0  0  0  0  0  0  0  0  0  0
   -0.8068   -4.9014   13.2287 C   0  0  0  0  0  0  0  0  0  0  0  0
   -1.7287   -4.0065   12.4791 C   0  0  0  0  0  0  0  0  0  0  0  0
   -1.0096   -3.0617   11.7463 F   0  0  0  0  0  0  0  0  0  0  0  0
   -2.3208   -3.1956   13.5011 F   0  0  0  0  0  0  0  0  0  0  0  0
   -2.7405   -4.5872   11.7926 F   0  0  0  0  0  0  0  0  0  0  0  0
   -0.3280   -5.9142   12.3956 F   0  0  0  0  0  0  0  0  0  0  0  0
   -1.5980   -5.5864   14.1619 F   0  0  0  0  0  0  0  0  0  0  0  0
    1.1079   -3.5812   13.0572 F   0  0  0  0  0  0  0  0  0  0  0  0
   -0.3596   -3.2897   14.7790 F   0  0  0  0  0  0  0  0  0  0  0  0
    0.3320   -5.7909   15.7574 F   0  0  0  0  0  0  0  0  0  0  0  0
    1.6061   -6.2095   14.0140 F   0  0  0  0  0  0  0  0  0  0  0  0
  1  2  1  0
  2  3  1  0
  3  4  1  0
  4  5  1  0
  5  6  1  0
  5  7  1  0
  5  8  1  0
  8  9  2  0
  8 10  2  0
  8 11  1  0
  4 12  1  0
  4 13  1  0
  3 14  1  0
  3 15  1  0
  2 16  1  0
  2 17  1  0
  1 18  1  0
 18 19  1  0
 19 20  1  0
 20 21  1  0
 20 22  1  0
 20 23  1  0
 19 24  1  0
 19 25  1  0
 18 26  1  0
 18 27  1  0
  1 28  1  0
  1 29  1  0
M  END
$$$$
