
     RDKit          3D

 29 28  0  0  0  0  0  0  0  0999 V2000
 1241.0956-1688.4135-3008.5930 C   0  0  0  0  0  0  0  0  0  0  0  0
 1241.1597-1687.7665-3007.2612 C   0  0  0  0  0  0  0  0  0  0  0  0
 1242.4976-1687.9507-3006.5911 C   0  0  0  0  0  0  0  0  0  0  0  0
 1242.8427-1686.8101-3005.7029 C   0  0  0  0  0  0  0  0  0  0  0  0
 1241.8641-1686.5481-3004.6265 C   0  0  0  0  0  0  0  0  0  0  0  0
 1241.0162-1687.6914-3004.4670 F   0  0  0  0  0  0  0  0  0  0  0  0
 1242.4591-1686.4393-3003.3750 F   0  0  0  0  0  0  0  0  0  0  0  0
 1240.7479-1685.2358-3004.9460 S   0  0  0  0  0  0  0  0  0  0  0  0
 1239.6989-1685.6628-3005.9705 O   0  0  0  0  0  0  0  0  0  0  0  0
 1241.5399-1684.0706-3005.5073 O   0  0  0  0  0  0  0  0  0  0  0  0
 1240.0326-1684.7083-3003.5447 O   0  0  0  0  0  0  0  0  0  0  0  0
 1242.9668-1685.7004-3006.5654 F   0  0  0  0  0  0  0  0  0  0  0  0
 1244.1361-1686.9459-3005.1702 F   0  0  0  0  0  0  0  0  0  0  0  0
 1242.3164-1689.0266-3005.6523 F   0  0  0  0  0  0  0  0  0  0  0  0
 1243.4595-1688.2242-3007.4797 F   0  0  0  0  0  0  0  0  0  0  0  0
 1240.2017-1688.2699-3006.3818 F   0  0  0  0  0  0  0  0  0  0  0  0
 1240.9781-1686.3838-3007.3596 F   0  0  0  0  0  0  0  0  0  0  0  0
 1240.8884-1687.5962-3009.8015 C   0  0  0  0  0  0  0  0  0  0  0  0
 1240.7474-1686.1060-3009.5930 C   0  0  0  0  0  0  0  0  0  0  0  0
 1241.8531-1685.4167-3008.8750 C   0  0  0  0  0  0  0  0  0  0  0  0
 1242.7555-1684.8590-3009.7820 F   0  0  0  0  0  0  0  0  0  0  0  0
 1242.6207-1686.4926-3008.3215 F   0  0  0  0  0  0  0  0  0  0  0  0
 1241.5176-1684.5970-3007.8516 F   0  0  0  0  0  0  0  0  0  0  0  0
 1240.4731-1685.4603-3010.7983 F   0  0  0  0  0  0  0  0  0  0  0  0
 1239.5905-1685.8911-3008.8306 F   0  0  0  0  0  0  0  0  0  0  0  0
 1239.7720-1688.0245-3010.4912 F   0  0  0  0  0  0  0  0  0  0  0  0
 1242.0195-1687.6700-3010.6584 F   0  0  0  0  0  0  0  0  0  0  0  0
 1240.1802-1689.4873-3008.5925 F   0  0  0  0  0  0  0  0  0  0  0  0
 1242.3398-1689.0957-3008.7327 F   0  0  0  0  0  0  0  0  0  0  0  0
  1  2  1  0
  2  3  1  0
  3  4  1  0
  4  5  1  0
  5  6  1  0
  5  7  1  0
  5  8  1  0
  8  9  2  0
  8 10  2  0
  8 11  1  0
  4 12  1  0
  4 13  1  0
  3 14  1  0
  3 15  1  0
  2 16  1  0
  2 17  1  0
  1 18  1  0
 18 19  1  0
 19 20  1  0
 20 21  1  0
 20 22  1  0
 20 23  1  0
 19 24  1  0
 19 25  1  0
 18 26  1  0
 18 27  1  0
  1 28  1  0
  1 29  1  0
M  END
$$$$
