
     RDKit          3D

  5  4  0  0  0  0  0  0  0  0999 V2000
   -1.3259   -6.0143   -7.6032 C   0  0  0  0  0  0  0  0  0  0  0  0
   -0.5136   -7.2463   -7.7979 C   0  0  0  0  0  0  0  0  0  0  0  0
    0.0440   -7.7838   -6.7907 O   0  0  0  0  0  0  0  0  0  0  0  0
   -0.3480   -7.8329   -9.0652 O   0  0  0  0  0  0  0  0  0  0  0  0
   -1.3064   -5.5905   -6.3076 F   0  0  0  0  0  0  0  0  0  0  0  0
  1  2  1  0
  2  3  2  0
  2  4  1  0
  1  5  1  0
M  END
$$$$
