
     RDKit          3D

  5  4  0  0  0  0  0  0  0  0999 V2000
   14.3140   12.5660    1.1883 C   0  0  0  0  0  0  0  0  0  0  0  0
   13.2405   12.1053    0.2657 C   0  0  0  0  0  0  0  0  0  0  0  0
   13.4714   11.1259   -0.5101 O   0  0  0  0  0  0  0  0  0  0  0  0
   11.9774   12.7225    0.2307 O   0  0  0  0  0  0  0  0  0  0  0  0
   15.4883   11.9080    0.9725 F   0  0  0  0  0  0  0  0  0  0  0  0
  1  2  1  0
  2  3  2  0
  2  4  1  0
  1  5  1  0
M  END
$$$$
