
     RDKit          3D

 25 24  0  0  0  0  0  0  0  0999 V2000
    9.3084   -1.2937  -14.2584 C   0  0  0  0  0  0  0  0  0  0  0  0
    8.6893   -0.7359  -15.1884 O   0  0  0  0  0  0  0  0  0  0  0  0
    8.6334   -1.5721  -12.9153 C   0  0  0  0  0  0  0  0  0  0  0  0
    7.3472   -0.8604  -12.8874 C   0  0  0  0  0  0  0  0  0  0  0  0
    6.5103   -0.8707  -11.6812 C   0  0  0  0  0  0  0  0  0  0  0  0
    5.2231   -0.1385  -11.7747 C   0  0  0  0  0  0  0  0  0  0  0  0
    4.1711   -0.5980  -10.8051 C   0  0  0  0  0  0  0  0  0  0  0  0
    2.8226   -0.0386  -10.8521 C   0  0  0  0  0  0  0  0  0  0  0  0
    1.7832   -0.6400   -9.9437 C   0  0  0  0  0  0  0  0  0  0  0  0
    0.5937    0.0556  -10.2349 F   0  0  0  0  0  0  0  0  0  0  0  0
    1.5859   -1.9907  -10.2811 F   0  0  0  0  0  0  0  0  0  0  0  0
    2.0261   -0.6135   -8.6198 F   0  0  0  0  0  0  0  0  0  0  0  0
    2.7379    1.3477  -10.8286 F   0  0  0  0  0  0  0  0  0  0  0  0
    2.3393   -0.3540  -12.1580 F   0  0  0  0  0  0  0  0  0  0  0  0
    4.0503   -1.9893  -10.9509 F   0  0  0  0  0  0  0  0  0  0  0  0
    4.6319   -0.4614   -9.4830 F   0  0  0  0  0  0  0  0  0  0  0  0
    5.5116    1.1857  -11.3884 F   0  0  0  0  0  0  0  0  0  0  0  0
    4.7627   -0.1239  -13.0538 F   0  0  0  0  0  0  0  0  0  0  0  0
    7.2242   -0.3419  -10.5851 F   0  0  0  0  0  0  0  0  0  0  0  0
    6.2753   -2.2336  -11.3864 F   0  0  0  0  0  0  0  0  0  0  0  0
    7.6335    0.4997  -13.1596 F   0  0  0  0  0  0  0  0  0  0  0  0
    6.6190   -1.2356  -14.0333 F   0  0  0  0  0  0  0  0  0  0  0  0
    9.4875   -1.0775  -11.9548 F   0  0  0  0  0  0  0  0  0  0  0  0
    8.6031   -2.9415  -12.7899 F   0  0  0  0  0  0  0  0  0  0  0  0
   10.6284   -1.6613  -14.4599 O   0  0  0  0  0  0  0  0  0  0  0  0
  1  2  2  0
  1  3  1  0
  3  4  1  0
  4  5  1  0
  5  6  1  0
  6  7  1  0
  7  8  1  0
  8  9  1  0
  9 10  1  0
  9 11  1  0
  9 12  1  0
  8 13  1  0
  8 14  1  0
  7 15  1  0
  7 16  1  0
  6 17  1  0
  6 18  1  0
  5 19  1  0
  5 20  1  0
  4 21  1  0
  4 22  1  0
  3 23  1  0
  3 24  1  0
  1 25  1  0
M  END
$$$$
