
     RDKit          3D

 25 24  0  0  0  0  0  0  0  0999 V2000
  -12.2333   -0.2900    6.3329 C   0  0  0  0  0  0  0  0  0  0  0  0
  -11.8213   -1.4048    6.7162 O   0  0  0  0  0  0  0  0  0  0  0  0
  -11.7133    0.3431    5.0422 C   0  0  0  0  0  0  0  0  0  0  0  0
  -10.4168    0.9754    5.3264 C   0  0  0  0  0  0  0  0  0  0  0  0
   -9.6694    1.6633    4.2664 C   0  0  0  0  0  0  0  0  0  0  0  0
   -8.5353    2.5098    4.7127 C   0  0  0  0  0  0  0  0  0  0  0  0
   -7.8221    3.2332    3.6054 C   0  0  0  0  0  0  0  0  0  0  0  0
   -6.6561    4.0649    3.8920 C   0  0  0  0  0  0  0  0  0  0  0  0
   -5.9822    4.7491    2.7321 C   0  0  0  0  0  0  0  0  0  0  0  0
   -4.8125    5.3193    3.2709 F   0  0  0  0  0  0  0  0  0  0  0  0
   -5.5945    3.7906    1.7791 F   0  0  0  0  0  0  0  0  0  0  0  0
   -6.6894    5.6800    2.0647 F   0  0  0  0  0  0  0  0  0  0  0  0
   -6.7831    4.9432    4.9607 F   0  0  0  0  0  0  0  0  0  0  0  0
   -5.6609    3.1541    4.3592 F   0  0  0  0  0  0  0  0  0  0  0  0
   -7.4246    2.2678    2.6663 F   0  0  0  0  0  0  0  0  0  0  0  0
   -8.7279    4.0243    2.8756 F   0  0  0  0  0  0  0  0  0  0  0  0
   -9.1100    3.5313    5.4952 F   0  0  0  0  0  0  0  0  0  0  0  0
   -7.6758    1.8013    5.4921 F   0  0  0  0  0  0  0  0  0  0  0  0
  -10.5354    2.4760    3.5048 F   0  0  0  0  0  0  0  0  0  0  0  0
   -9.2069    0.6470    3.3987 F   0  0  0  0  0  0  0  0  0  0  0  0
  -10.6520    1.9405    6.3359 F   0  0  0  0  0  0  0  0  0  0  0  0
   -9.6166    0.0369    6.0070 F   0  0  0  0  0  0  0  0  0  0  0  0
  -12.6496    1.2866    4.6818 F   0  0  0  0  0  0  0  0  0  0  0  0
  -11.7374   -0.6583    4.0996 F   0  0  0  0  0  0  0  0  0  0  0  0
  -13.1771    0.3736    7.0990 O   0  0  0  0  0  0  0  0  0  0  0  0
  1  2  2  0
  1  3  1  0
  3  4  1  0
  4  5  1  0
  5  6  1  0
  6  7  1  0
  7  8  1  0
  8  9  1  0
  9 10  1  0
  9 11  1  0
  9 12  1  0
  8 13  1  0
  8 14  1  0
  7 15  1  0
  7 16  1  0
  6 17  1  0
  6 18  1  0
  5 19  1  0
  5 20  1  0
  4 21  1  0
  4 22  1  0
  3 23  1  0
  3 24  1  0
  1 25  1  0
M  END
$$$$
