
     RDKit          3D

 25 24  0  0  0  0  0  0  0  0999 V2000
    9.6446   -1.3768  -13.8429 C   0  0  0  0  0  0  0  0  0  0  0  0
    9.9125   -0.2792  -13.3109 O   0  0  0  0  0  0  0  0  0  0  0  0
    8.2169   -1.9232  -13.8508 C   0  0  0  0  0  0  0  0  0  0  0  0
    7.4081   -1.1182  -12.9238 C   0  0  0  0  0  0  0  0  0  0  0  0
    6.0036   -1.4582  -12.6643 C   0  0  0  0  0  0  0  0  0  0  0  0
    5.3115   -0.6340  -11.6429 C   0  0  0  0  0  0  0  0  0  0  0  0
    3.8659   -0.9856  -11.4311 C   0  0  0  0  0  0  0  0  0  0  0  0
    3.1384   -0.4714  -10.2736 C   0  0  0  0  0  0  0  0  0  0  0  0
    1.6370   -0.5872  -10.2825 C   0  0  0  0  0  0  0  0  0  0  0  0
    1.3750   -1.9709  -10.2629 F   0  0  0  0  0  0  0  0  0  0  0  0
    1.1138   -0.0330   -9.1008 F   0  0  0  0  0  0  0  0  0  0  0  0
    0.9756   -0.0022  -11.2986 F   0  0  0  0  0  0  0  0  0  0  0  0
    3.6413   -0.8314   -9.0298 F   0  0  0  0  0  0  0  0  0  0  0  0
    3.3589    0.9390  -10.2979 F   0  0  0  0  0  0  0  0  0  0  0  0
    3.1662   -0.5773  -12.5780 F   0  0  0  0  0  0  0  0  0  0  0  0
    3.6959   -2.3820  -11.4423 F   0  0  0  0  0  0  0  0  0  0  0  0
    5.9377   -0.9429  -10.4188 F   0  0  0  0  0  0  0  0  0  0  0  0
    5.4801    0.6920  -11.8909 F   0  0  0  0  0  0  0  0  0  0  0  0
    5.8911   -2.8087  -12.2716 F   0  0  0  0  0  0  0  0  0  0  0  0
    5.3433   -1.3466  -13.9098 F   0  0  0  0  0  0  0  0  0  0  0  0
    8.0655   -1.1657  -11.6702 F   0  0  0  0  0  0  0  0  0  0  0  0
    7.5622    0.2364  -13.2779 F   0  0  0  0  0  0  0  0  0  0  0  0
    8.3099   -3.2262  -13.4147 F   0  0  0  0  0  0  0  0  0  0  0  0
    7.8334   -1.9455  -15.1716 F   0  0  0  0  0  0  0  0  0  0  0  0
   10.6672   -2.1015  -14.4322 O   0  0  0  0  0  0  0  0  0  0  0  0
  1  2  2  0
  1  3  1  0
  3  4  1  0
  4  5  1  0
  5  6  1  0
  6  7  1  0
  7  8  1  0
  8  9  1  0
  9 10  1  0
  9 11  1  0
  9 12  1  0
  8 13  1  0
  8 14  1  0
  7 15  1  0
  7 16  1  0
  6 17  1  0
  6 18  1  0
  5 19  1  0
  5 20  1  0
  4 21  1  0
  4 22  1  0
  3 23  1  0
  3 24  1  0
  1 25  1  0
M  END
$$$$
