
     RDKit          3D

 25 24  0  0  0  0  0  0  0  0999 V2000
    9.3097   -4.8357  -17.4407 C   0  0  0  0  0  0  0  0  0  0  0  0
   10.2510   -5.5863  -17.1092 O   0  0  0  0  0  0  0  0  0  0  0  0
    9.2338   -3.3943  -16.9368 C   0  0  0  0  0  0  0  0  0  0  0  0
    8.4676   -3.3825  -15.6820 C   0  0  0  0  0  0  0  0  0  0  0  0
    8.1119   -2.1149  -15.0323 C   0  0  0  0  0  0  0  0  0  0  0  0
    7.6394   -2.2118  -13.6291 C   0  0  0  0  0  0  0  0  0  0  0  0
    7.0292   -0.9502  -13.0868 C   0  0  0  0  0  0  0  0  0  0  0  0
    6.4561   -0.9202  -11.7436 C   0  0  0  0  0  0  0  0  0  0  0  0
    6.4193    0.4041  -11.0277 C   0  0  0  0  0  0  0  0  0  0  0  0
    7.6953    0.9658  -11.2280 F   0  0  0  0  0  0  0  0  0  0  0  0
    5.4764    1.2470  -11.6422 F   0  0  0  0  0  0  0  0  0  0  0  0
    6.1164    0.3921   -9.7161 F   0  0  0  0  0  0  0  0  0  0  0  0
    5.2488   -1.5879  -11.5822 F   0  0  0  0  0  0  0  0  0  0  0  0
    7.3476   -1.6998  -10.9462 F   0  0  0  0  0  0  0  0  0  0  0  0
    8.0173    0.0461  -13.1405 F   0  0  0  0  0  0  0  0  0  0  0  0
    6.0472   -0.4639  -13.9688 F   0  0  0  0  0  0  0  0  0  0  0  0
    6.5802   -3.1412  -13.6493 F   0  0  0  0  0  0  0  0  0  0  0  0
    8.6186   -2.6916  -12.8173 F   0  0  0  0  0  0  0  0  0  0  0  0
    7.1144   -1.4474  -15.7740 F   0  0  0  0  0  0  0  0  0  0  0  0
    9.2707   -1.3074  -15.1016 F   0  0  0  0  0  0  0  0  0  0  0  0
    7.2460   -4.0472  -15.9497 F   0  0  0  0  0  0  0  0  0  0  0  0
    9.0894   -4.2739  -14.7859 F   0  0  0  0  0  0  0  0  0  0  0  0
    8.5766   -2.6863  -17.9184 F   0  0  0  0  0  0  0  0  0  0  0  0
   10.5335   -2.9465  -16.8904 F   0  0  0  0  0  0  0  0  0  0  0  0
    8.3244   -5.3293  -18.2795 O   0  0  0  0  0  0  0  0  0  0  0  0
  1  2  2  0
  1  3  1  0
  3  4  1  0
  4  5  1  0
  5  6  1  0
  6  7  1  0
  7  8  1  0
  8  9  1  0
  9 10  1  0
  9 11  1  0
  9 12  1  0
  8 13  1  0
  8 14  1  0
  7 15  1  0
  7 16  1  0
  6 17  1  0
  6 18  1  0
  5 19  1  0
  5 20  1  0
  4 21  1  0
  4 22  1  0
  3 23  1  0
  3 24  1  0
  1 25  1  0
M  END
$$$$
