
     RDKit          3D

 25 24  0  0  0  0  0  0  0  0999 V2000
  -10.9293   -0.5326    3.5017 C   0  0  0  0  0  0  0  0  0  0  0  0
  -11.3259   -0.9533    4.6085 O   0  0  0  0  0  0  0  0  0  0  0  0
   -9.4482   -0.2512    3.2482 C   0  0  0  0  0  0  0  0  0  0  0  0
   -9.0721    0.9574    3.9960 C   0  0  0  0  0  0  0  0  0  0  0  0
   -7.7777    1.6103    3.7644 C   0  0  0  0  0  0  0  0  0  0  0  0
   -7.4365    2.7250    4.6823 C   0  0  0  0  0  0  0  0  0  0  0  0
   -6.1154    3.3838    4.4011 C   0  0  0  0  0  0  0  0  0  0  0  0
   -5.8982    4.7875    4.7414 C   0  0  0  0  0  0  0  0  0  0  0  0
   -4.5482    5.1755    5.2840 C   0  0  0  0  0  0  0  0  0  0  0  0
   -4.2285    4.1759    6.2232 F   0  0  0  0  0  0  0  0  0  0  0  0
   -3.5921    5.1206    4.2544 F   0  0  0  0  0  0  0  0  0  0  0  0
   -4.4311    6.3945    5.8430 F   0  0  0  0  0  0  0  0  0  0  0  0
   -6.3221    5.7149    3.7981 F   0  0  0  0  0  0  0  0  0  0  0  0
   -6.7775    5.0402    5.8375 F   0  0  0  0  0  0  0  0  0  0  0  0
   -5.1287    2.6368    5.0645 F   0  0  0  0  0  0  0  0  0  0  0  0
   -5.7690    3.2258    3.0469 F   0  0  0  0  0  0  0  0  0  0  0  0
   -8.3958    3.7272    4.4343 F   0  0  0  0  0  0  0  0  0  0  0  0
   -7.5440    2.3372    5.9808 F   0  0  0  0  0  0  0  0  0  0  0  0
   -7.7083    2.1063    2.4454 F   0  0  0  0  0  0  0  0  0  0  0  0
   -6.8069    0.5865    3.8592 F   0  0  0  0  0  0  0  0  0  0  0  0
  -10.0625    1.9298    3.7142 F   0  0  0  0  0  0  0  0  0  0  0  0
   -9.2955    0.7079    5.3642 F   0  0  0  0  0  0  0  0  0  0  0  0
   -9.3310   -0.0440    1.8917 F   0  0  0  0  0  0  0  0  0  0  0  0
   -8.7888   -1.4184    3.5563 F   0  0  0  0  0  0  0  0  0  0  0  0
  -11.8570   -0.3216    2.4951 O   0  0  0  0  0  0  0  0  0  0  0  0
  1  2  2  0
  1  3  1  0
  3  4  1  0
  4  5  1  0
  5  6  1  0
  6  7  1  0
  7  8  1  0
  8  9  1  0
  9 10  1  0
  9 11  1  0
  9 12  1  0
  8 13  1  0
  8 14  1  0
  7 15  1  0
  7 16  1  0
  6 17  1  0
  6 18  1  0
  5 19  1  0
  5 20  1  0
  4 21  1  0
  4 22  1  0
  3 23  1  0
  3 24  1  0
  1 25  1  0
M  END
$$$$
