
     RDKit          3D

 29 28  0  0  0  0  0  0  0  0999 V2000
   -1.1877   11.9873  -13.0078 C   0  0  0  0  0  0  0  0  0  0  0  0
   -2.5627   11.9696  -12.4461 C   0  0  0  0  0  0  0  0  0  0  0  0
   -2.8971   11.0073  -11.3823 C   0  0  0  0  0  0  0  0  0  0  0  0
   -4.4008   11.1667  -11.0786 C   0  0  0  0  0  0  0  0  0  0  0  0
   -4.6134   11.4864   -9.6192 C   0  0  0  0  0  0  0  0  0  0  0  0
   -3.9293   12.6791   -9.3866 F   0  0  0  0  0  0  0  0  0  0  0  0
   -4.1148   10.5486   -8.7780 F   0  0  0  0  0  0  0  0  0  0  0  0
   -6.3174   11.8103   -9.2640 S   0  0  0  0  0  0  0  0  0  0  0  0
   -7.1349   10.5476   -9.4373 O   0  0  0  0  0  0  0  0  0  0  0  0
   -6.8163   12.7959  -10.2931 O   0  0  0  0  0  0  0  0  0  0  0  0
   -6.5201   12.4218   -7.7088 O   0  0  0  0  0  0  0  0  0  0  0  0
   -4.8827   12.1474  -11.9040 F   0  0  0  0  0  0  0  0  0  0  0  0
   -5.0240    9.9597  -11.3292 F   0  0  0  0  0  0  0  0  0  0  0  0
   -2.8367    9.7102  -11.9207 F   0  0  0  0  0  0  0  0  0  0  0  0
   -2.2040   11.1468  -10.2262 F   0  0  0  0  0  0  0  0  0  0  0  0
   -2.7762   13.2587  -11.9337 F   0  0  0  0  0  0  0  0  0  0  0  0
   -3.4998   11.8556  -13.4802 F   0  0  0  0  0  0  0  0  0  0  0  0
   -0.7517   13.1428  -13.7983 C   0  0  0  0  0  0  0  0  0  0  0  0
    0.5530   12.9666  -14.5188 C   0  0  0  0  0  0  0  0  0  0  0  0
    1.3016   14.1839  -14.9012 C   0  0  0  0  0  0  0  0  0  0  0  0
    0.6353   15.0504  -15.7338 F   0  0  0  0  0  0  0  0  0  0  0  0
    2.4317   13.7988  -15.6893 F   0  0  0  0  0  0  0  0  0  0  0  0
    1.8823   14.8634  -13.8600 F   0  0  0  0  0  0  0  0  0  0  0  0
    1.4213   12.1596  -13.7803 F   0  0  0  0  0  0  0  0  0  0  0  0
    0.3385   12.2377  -15.7053 F   0  0  0  0  0  0  0  0  0  0  0  0
   -0.6010   14.3081  -13.0264 F   0  0  0  0  0  0  0  0  0  0  0  0
   -1.6446   13.5196  -14.7972 F   0  0  0  0  0  0  0  0  0  0  0  0
   -0.8794   10.8197  -13.6343 F   0  0  0  0  0  0  0  0  0  0  0  0
   -0.3763   11.9896  -11.8414 F   0  0  0  0  0  0  0  0  0  0  0  0
  1  2  1  0
  2  3  1  0
  3  4  1  0
  4  5  1  0
  5  6  1  0
  5  7  1  0
  5  8  1  0
  8  9  2  0
  8 10  2  0
  8 11  1  0
  4 12  1  0
  4 13  1  0
  3 14  1  0
  3 15  1  0
  2 16  1  0
  2 17  1  0
  1 18  1  0
 18 19  1  0
 19 20  1  0
 20 21  1  0
 20 22  1  0
 20 23  1  0
 19 24  1  0
 19 25  1  0
 18 26  1  0
 18 27  1  0
  1 28  1  0
  1 29  1  0
M  END
$$$$
