
     RDKit          3D

 29 28  0  0  0  0  0  0  0  0999 V2000
   -1.3913   18.1637   -7.3536 C   0  0  0  0  0  0  0  0  0  0  0  0
   -2.2117   17.1689   -8.0910 C   0  0  0  0  0  0  0  0  0  0  0  0
   -1.6736   15.8178   -8.3242 C   0  0  0  0  0  0  0  0  0  0  0  0
   -2.4235   15.2307   -9.5373 C   0  0  0  0  0  0  0  0  0  0  0  0
   -1.5510   15.2722  -10.7678 C   0  0  0  0  0  0  0  0  0  0  0  0
   -0.5984   14.2688  -10.5937 F   0  0  0  0  0  0  0  0  0  0  0  0
   -0.8949   16.4464  -10.9309 F   0  0  0  0  0  0  0  0  0  0  0  0
   -2.4606   14.8500  -12.2270 S   0  0  0  0  0  0  0  0  0  0  0  0
   -3.5781   15.8468  -12.4509 O   0  0  0  0  0  0  0  0  0  0  0  0
   -3.1144   13.5113  -11.9829 O   0  0  0  0  0  0  0  0  0  0  0  0
   -1.4629   14.7856  -13.5812 O   0  0  0  0  0  0  0  0  0  0  0  0
   -2.8006   13.9564   -9.2069 F   0  0  0  0  0  0  0  0  0  0  0  0
   -3.5268   16.0226   -9.7898 F   0  0  0  0  0  0  0  0  0  0  0  0
   -0.3617   15.9399   -8.8141 F   0  0  0  0  0  0  0  0  0  0  0  0
   -1.7859   14.9546   -7.2856 F   0  0  0  0  0  0  0  0  0  0  0  0
   -3.3942   17.0316   -7.3476 F   0  0  0  0  0  0  0  0  0  0  0  0
   -2.6378   17.7106   -9.3098 F   0  0  0  0  0  0  0  0  0  0  0  0
   -2.0312   19.3769   -6.8352 C   0  0  0  0  0  0  0  0  0  0  0  0
   -1.0871   20.4570   -6.3942 C   0  0  0  0  0  0  0  0  0  0  0  0
   -1.6687   21.7129   -5.8718 C   0  0  0  0  0  0  0  0  0  0  0  0
   -0.7667   22.6129   -5.3575 F   0  0  0  0  0  0  0  0  0  0  0  0
   -2.4842   21.4040   -4.7378 F   0  0  0  0  0  0  0  0  0  0  0  0
   -2.5531   22.3407   -6.7125 F   0  0  0  0  0  0  0  0  0  0  0  0
   -0.2011   19.9758   -5.4278 F   0  0  0  0  0  0  0  0  0  0  0  0
   -0.2524   20.8180   -7.4703 F   0  0  0  0  0  0  0  0  0  0  0  0
   -2.8610   19.1272   -5.7282 F   0  0  0  0  0  0  0  0  0  0  0  0
   -2.8730   20.0103   -7.7447 F   0  0  0  0  0  0  0  0  0  0  0  0
   -0.2384   18.4602   -8.0122 F   0  0  0  0  0  0  0  0  0  0  0  0
   -0.9696   17.4317   -6.2111 F   0  0  0  0  0  0  0  0  0  0  0  0
  1  2  1  0
  2  3  1  0
  3  4  1  0
  4  5  1  0
  5  6  1  0
  5  7  1  0
  5  8  1  0
  8  9  2  0
  8 10  2  0
  8 11  1  0
  4 12  1  0
  4 13  1  0
  3 14  1  0
  3 15  1  0
  2 16  1  0
  2 17  1  0
  1 18  1  0
 18 19  1  0
 19 20  1  0
 20 21  1  0
 20 22  1  0
 20 23  1  0
 19 24  1  0
 19 25  1  0
 18 26  1  0
 18 27  1  0
  1 28  1  0
  1 29  1  0
M  END
$$$$
