
     RDKit          3D

 29 28  0  0  0  0  0  0  0  0999 V2000
  -19.8169    4.8938  -12.0701 C   0  0  0  0  0  0  0  0  0  0  0  0
  -18.8213    5.8451  -11.5132 C   0  0  0  0  0  0  0  0  0  0  0  0
  -18.4736    5.7738  -10.0837 C   0  0  0  0  0  0  0  0  0  0  0  0
  -17.5749    6.9877   -9.7712 C   0  0  0  0  0  0  0  0  0  0  0  0
  -17.1704    6.9845   -8.3175 C   0  0  0  0  0  0  0  0  0  0  0  0
  -16.3941    5.8398   -8.1402 F   0  0  0  0  0  0  0  0  0  0  0  0
  -18.2179    6.9148   -7.4609 F   0  0  0  0  0  0  0  0  0  0  0  0
  -16.1274    8.3611   -7.9276 S   0  0  0  0  0  0  0  0  0  0  0  0
  -15.9166    8.4476   -6.4307 O   0  0  0  0  0  0  0  0  0  0  0  0
  -16.8603    9.6160   -8.3367 O   0  0  0  0  0  0  0  0  0  0  0  0
  -14.6437    8.2561   -8.7157 O   0  0  0  0  0  0  0  0  0  0  0  0
  -16.4971    6.9257  -10.6137 F   0  0  0  0  0  0  0  0  0  0  0  0
  -18.3080    8.1377   -9.9906 F   0  0  0  0  0  0  0  0  0  0  0  0
  -19.6271    6.0540   -9.3308 F   0  0  0  0  0  0  0  0  0  0  0  0
  -17.8315    4.6465   -9.6919 F   0  0  0  0  0  0  0  0  0  0  0  0
  -17.6443    5.6298  -12.2468 F   0  0  0  0  0  0  0  0  0  0  0  0
  -19.1852    7.1588  -11.8327 F   0  0  0  0  0  0  0  0  0  0  0  0
  -20.0908    4.9052  -13.5106 C   0  0  0  0  0  0  0  0  0  0  0  0
  -21.1950    3.9918  -13.9568 C   0  0  0  0  0  0  0  0  0  0  0  0
  -21.4013    3.8156  -15.4111 C   0  0  0  0  0  0  0  0  0  0  0  0
  -20.3007    3.3941  -16.1175 F   0  0  0  0  0  0  0  0  0  0  0  0
  -21.6770    5.0928  -15.9934 F   0  0  0  0  0  0  0  0  0  0  0  0
  -22.5090    3.0842  -15.7592 F   0  0  0  0  0  0  0  0  0  0  0  0
  -21.0399    2.7197  -13.4019 F   0  0  0  0  0  0  0  0  0  0  0  0
  -22.4202    4.4453  -13.4294 F   0  0  0  0  0  0  0  0  0  0  0  0
  -18.9716    4.5480  -14.2829 F   0  0  0  0  0  0  0  0  0  0  0  0
  -20.4557    6.1513  -14.0116 F   0  0  0  0  0  0  0  0  0  0  0  0
  -20.9718    4.8877  -11.3511 F   0  0  0  0  0  0  0  0  0  0  0  0
  -19.2238    3.6311  -11.8002 F   0  0  0  0  0  0  0  0  0  0  0  0
  1  2  1  0
  2  3  1  0
  3  4  1  0
  4  5  1  0
  5  6  1  0
  5  7  1  0
  5  8  1  0
  8  9  2  0
  8 10  2  0
  8 11  1  0
  4 12  1  0
  4 13  1  0
  3 14  1  0
  3 15  1  0
  2 16  1  0
  2 17  1  0
  1 18  1  0
 18 19  1  0
 19 20  1  0
 20 21  1  0
 20 22  1  0
 20 23  1  0
 19 24  1  0
 19 25  1  0
 18 26  1  0
 18 27  1  0
  1 28  1  0
  1 29  1  0
M  END
$$$$
