
     RDKit          3D

 29 28  0  0  0  0  0  0  0  0999 V2000
   -6.9950    9.2543  -11.0276 C   0  0  0  0  0  0  0  0  0  0  0  0
   -5.9543    9.8401  -11.9108 C   0  0  0  0  0  0  0  0  0  0  0  0
   -4.5775    9.9861  -11.4084 C   0  0  0  0  0  0  0  0  0  0  0  0
   -3.8479   10.9632  -12.3527 C   0  0  0  0  0  0  0  0  0  0  0  0
   -2.4746   11.2876  -11.8180 C   0  0  0  0  0  0  0  0  0  0  0  0
   -1.8370   10.0610  -11.6353 F   0  0  0  0  0  0  0  0  0  0  0  0
   -2.4925   11.9302  -10.6253 F   0  0  0  0  0  0  0  0  0  0  0  0
   -1.5082   12.1818  -13.0017 S   0  0  0  0  0  0  0  0  0  0  0  0
   -2.3447   13.2691  -13.6427 O   0  0  0  0  0  0  0  0  0  0  0  0
   -1.1315   11.2181  -14.1011 O   0  0  0  0  0  0  0  0  0  0  0  0
   -0.1317   12.8493  -12.2995 O   0  0  0  0  0  0  0  0  0  0  0  0
   -3.8021   10.3780  -13.5900 F   0  0  0  0  0  0  0  0  0  0  0  0
   -4.5629   12.1444  -12.3910 F   0  0  0  0  0  0  0  0  0  0  0  0
   -4.6180   10.7089  -10.2034 F   0  0  0  0  0  0  0  0  0  0  0  0
   -3.8577    8.8407  -11.3291 F   0  0  0  0  0  0  0  0  0  0  0  0
   -5.9073    9.0077  -13.0399 F   0  0  0  0  0  0  0  0  0  0  0  0
   -6.3927   11.0709  -12.4144 F   0  0  0  0  0  0  0  0  0  0  0  0
   -8.3050    9.9062  -10.9340 C   0  0  0  0  0  0  0  0  0  0  0  0
   -9.2127    9.3632   -9.8692 C   0  0  0  0  0  0  0  0  0  0  0  0
  -10.5709    9.9391   -9.7586 C   0  0  0  0  0  0  0  0  0  0  0  0
  -11.3487    9.4290   -8.7472 F   0  0  0  0  0  0  0  0  0  0  0  0
  -11.3135    9.5911  -10.9308 F   0  0  0  0  0  0  0  0  0  0  0  0
  -10.6261   11.3102   -9.7672 F   0  0  0  0  0  0  0  0  0  0  0  0
   -9.3570    7.9802   -9.9997 F   0  0  0  0  0  0  0  0  0  0  0  0
   -8.6046    9.5237   -8.6084 F   0  0  0  0  0  0  0  0  0  0  0  0
   -9.0403    9.8305  -12.1299 F   0  0  0  0  0  0  0  0  0  0  0  0
   -8.2448   11.2708  -10.6673 F   0  0  0  0  0  0  0  0  0  0  0  0
   -6.5057    8.9567   -9.7936 F   0  0  0  0  0  0  0  0  0  0  0  0
   -7.2356    7.9895  -11.6288 F   0  0  0  0  0  0  0  0  0  0  0  0
  1  2  1  0
  2  3  1  0
  3  4  1  0
  4  5  1  0
  5  6  1  0
  5  7  1  0
  5  8  1  0
  8  9  2  0
  8 10  2  0
  8 11  1  0
  4 12  1  0
  4 13  1  0
  3 14  1  0
  3 15  1  0
  2 16  1  0
  2 17  1  0
  1 18  1  0
 18 19  1  0
 19 20  1  0
 20 21  1  0
 20 22  1  0
 20 23  1  0
 19 24  1  0
 19 25  1  0
 18 26  1  0
 18 27  1  0
  1 28  1  0
  1 29  1  0
M  END
$$$$
