
     RDKit          3D

 29 28  0  0  0  0  0  0  0  0999 V2000
    3.4843   18.8592  -11.9036 C   0  0  0  0  0  0  0  0  0  0  0  0
    4.2171   20.1151  -12.2073 C   0  0  0  0  0  0  0  0  0  0  0  0
    3.4581   21.3384  -12.5183 C   0  0  0  0  0  0  0  0  0  0  0  0
    4.3933   22.5358  -12.2535 C   0  0  0  0  0  0  0  0  0  0  0  0
    3.9810   23.7225  -13.0896 C   0  0  0  0  0  0  0  0  0  0  0  0
    2.6690   24.0136  -12.7175 F   0  0  0  0  0  0  0  0  0  0  0  0
    3.9925   23.4799  -14.4225 F   0  0  0  0  0  0  0  0  0  0  0  0
    4.9408   25.1588  -12.7017 S   0  0  0  0  0  0  0  0  0  0  0  0
    4.8358   26.1735  -13.8206 O   0  0  0  0  0  0  0  0  0  0  0  0
    6.3878   24.7333  -12.6350 O   0  0  0  0  0  0  0  0  0  0  0  0
    4.4577   25.8513  -11.2455 O   0  0  0  0  0  0  0  0  0  0  0  0
    4.3471   22.8012  -10.9109 F   0  0  0  0  0  0  0  0  0  0  0  0
    5.6705   22.1829  -12.6437 F   0  0  0  0  0  0  0  0  0  0  0  0
    3.2732   21.4054  -13.9102 F   0  0  0  0  0  0  0  0  0  0  0  0
    2.3158   21.5155  -11.8109 F   0  0  0  0  0  0  0  0  0  0  0  0
    4.9983   20.3785  -11.0714 F   0  0  0  0  0  0  0  0  0  0  0  0
    5.1564   19.8870  -13.2202 F   0  0  0  0  0  0  0  0  0  0  0  0
    4.2387   17.6713  -11.4915 C   0  0  0  0  0  0  0  0  0  0  0  0
    3.4393   16.4034  -11.4146 C   0  0  0  0  0  0  0  0  0  0  0  0
    4.1559   15.1536  -11.0784 C   0  0  0  0  0  0  0  0  0  0  0  0
    3.3608   14.0490  -10.8891 F   0  0  0  0  0  0  0  0  0  0  0  0
    4.7807   15.3123   -9.8014 F   0  0  0  0  0  0  0  0  0  0  0  0
    5.2175   14.8518  -11.8939 F   0  0  0  0  0  0  0  0  0  0  0  0
    2.3867   16.5361  -10.5064 F   0  0  0  0  0  0  0  0  0  0  0  0
    2.7971   16.1788  -12.6483 F   0  0  0  0  0  0  0  0  0  0  0  0
    4.8384   17.8154  -10.2281 F   0  0  0  0  0  0  0  0  0  0  0  0
    5.3031   17.3530  -12.3297 F   0  0  0  0  0  0  0  0  0  0  0  0
    2.5773   18.5534  -12.8705 F   0  0  0  0  0  0  0  0  0  0  0  0
    2.6956   19.2245  -10.7796 F   0  0  0  0  0  0  0  0  0  0  0  0
  1  2  1  0
  2  3  1  0
  3  4  1  0
  4  5  1  0
  5  6  1  0
  5  7  1  0
  5  8  1  0
  8  9  2  0
  8 10  2  0
  8 11  1  0
  4 12  1  0
  4 13  1  0
  3 14  1  0
  3 15  1  0
  2 16  1  0
  2 17  1  0
  1 18  1  0
 18 19  1  0
 19 20  1  0
 20 21  1  0
 20 22  1  0
 20 23  1  0
 19 24  1  0
 19 25  1  0
 18 26  1  0
 18 27  1  0
  1 28  1  0
  1 29  1  0
M  END
$$$$
