
     RDKit          3D

  5  4  0  0  0  0  0  0  0  0999 V2000
   16.0231   -4.9758   -8.2042 C   0  0  0  0  0  0  0  0  0  0  0  0
   17.2144   -5.6001   -7.6042 C   0  0  0  0  0  0  0  0  0  0  0  0
   17.3987   -6.8473   -7.7409 O   0  0  0  0  0  0  0  0  0  0  0  0
   18.1486   -4.9198   -6.8479 O   0  0  0  0  0  0  0  0  0  0  0  0
   15.3297   -5.8981   -8.9834 F   0  0  0  0  0  0  0  0  0  0  0  0
  1  2  1  0
  2  3  2  0
  2  4  1  0
  1  5  1  0
M  END
$$$$
