
     RDKit          3D

  5  4  0  0  0  0  0  0  0  0999 V2000
   12.5735   -0.4737   12.6049 C   0  0  0  0  0  0  0  0  0  0  0  0
   14.0163   -0.7031   12.4187 C   0  0  0  0  0  0  0  0  0  0  0  0
   14.8067   -0.5156   13.3925 O   0  0  0  0  0  0  0  0  0  0  0  0
   14.5940   -1.0757   11.2208 O   0  0  0  0  0  0  0  0  0  0  0  0
   11.8372   -1.4985   12.0165 F   0  0  0  0  0  0  0  0  0  0  0  0
  1  2  1  0
  2  3  2  0
  2  4  1  0
  1  5  1  0
M  END
$$$$
