
     RDKit          3D

  5  4  0  0  0  0  0  0  0  0999 V2000
    0.8457    3.3481  -15.8668 C   0  0  0  0  0  0  0  0  0  0  0  0
   -0.2888    4.0617  -15.2566 C   0  0  0  0  0  0  0  0  0  0  0  0
   -0.6228    5.1993  -15.7066 O   0  0  0  0  0  0  0  0  0  0  0  0
   -1.0089    3.5926  -14.1753 O   0  0  0  0  0  0  0  0  0  0  0  0
    0.9597    2.0672  -15.3331 F   0  0  0  0  0  0  0  0  0  0  0  0
  1  2  1  0
  2  3  2  0
  2  4  1  0
  1  5  1  0
M  END
$$$$
