
     RDKit          3D

  5  4  0  0  0  0  0  0  0  0999 V2000
   17.2135   -6.5078   -8.5973 C   0  0  0  0  0  0  0  0  0  0  0  0
   17.7099   -6.0980   -7.2727 C   0  0  0  0  0  0  0  0  0  0  0  0
   16.8813   -5.8837   -6.3369 O   0  0  0  0  0  0  0  0  0  0  0  0
   19.0415   -5.8823   -6.9763 O   0  0  0  0  0  0  0  0  0  0  0  0
   15.8469   -6.7692   -8.5462 F   0  0  0  0  0  0  0  0  0  0  0  0
  1  2  1  0
  2  3  2  0
  2  4  1  0
  1  5  1  0
M  END
$$$$
