
     RDKit          3D

 14 14  0  0  0  0  0  0  0  0999 V2000
   15.6055  -42.6806   41.6316 C   0  0  0  0  0  0  0  0  0  0  0  0
   16.7549  -42.6202   40.6107 C   0  0  0  0  0  0  0  0  0  0  0  0
   17.7131  -41.6184   41.2374 C   0  0  0  0  0  0  0  0  0  0  0  0
   16.9127  -40.2324   42.0133 S   0  0  0  0  0  0  0  0  0  0  0  0
   16.2101  -42.0100   39.3790 C   0  0  0  0  0  0  0  0  0  0  0  0
   16.0693  -40.7294   39.4417 O   0  0  0  0  0  0  0  0  0  0  0  0
   15.8480  -42.6986   38.2028 N   0  0  0  0  0  0  0  0  0  0  0  0
   15.8896  -44.1006   37.8480 C   0  0  0  0  0  0  0  0  0  0  0  0
   14.5984  -44.2837   37.0339 C   0  0  0  0  0  0  0  0  0  0  0  0
   14.7695  -43.0782   36.0965 C   0  0  0  0  0  0  0  0  0  0  0  0
   15.2926  -42.0167   37.0268 C   0  0  0  0  0  0  0  0  0  0  0  0
   14.1283  -41.1562   37.3783 C   0  0  0  0  0  0  0  0  0  0  0  0
   13.5658  -41.1667   38.4990 O   0  0  0  0  0  0  0  0  0  0  0  0
   13.6647  -40.3050   36.3838 O   0  0  0  0  0  0  0  0  0  0  0  0
  1  2  1  0
  2  3  1  0
  3  4  1  0
  2  5  1  0
  5  6  2  0
  5  7  1  0
  7  8  1  0
  8  9  1  0
  9 10  1  0
 10 11  1  0
 11 12  1  0
 12 13  2  0
 12 14  1  0
 11  7  1  0
M  END
$$$$
