
     RDKit          3D

 14 14  0  0  0  0  0  0  0  0999 V2000
   28.3528  -55.5526    9.7396 C   0  0  0  0  0  0  0  0  0  0  0  0
   29.0400  -54.9146    8.5199 C   0  0  0  0  0  0  0  0  0  0  0  0
   29.0496  -56.0474    7.5046 C   0  0  0  0  0  0  0  0  0  0  0  0
   29.5276  -55.5515    5.8647 S   0  0  0  0  0  0  0  0  0  0  0  0
   30.4421  -54.6441    8.9037 C   0  0  0  0  0  0  0  0  0  0  0  0
   31.2673  -55.5833    8.5861 O   0  0  0  0  0  0  0  0  0  0  0  0
   30.9132  -53.4905    9.5640 N   0  0  0  0  0  0  0  0  0  0  0  0
   30.2354  -52.3130   10.0615 C   0  0  0  0  0  0  0  0  0  0  0  0
   30.9773  -52.0241   11.3767 C   0  0  0  0  0  0  0  0  0  0  0  0
   32.4114  -52.1155   10.8323 C   0  0  0  0  0  0  0  0  0  0  0  0
   32.3291  -53.2950    9.9007 C   0  0  0  0  0  0  0  0  0  0  0  0
   32.8919  -54.4569   10.6442 C   0  0  0  0  0  0  0  0  0  0  0  0
   32.2131  -55.4448   11.0128 O   0  0  0  0  0  0  0  0  0  0  0  0
   34.2503  -54.4108   10.9292 O   0  0  0  0  0  0  0  0  0  0  0  0
  1  2  1  0
  2  3  1  0
  3  4  1  0
  2  5  1  0
  5  6  2  0
  5  7  1  0
  7  8  1  0
  8  9  1  0
  9 10  1  0
 10 11  1  0
 11 12  1  0
 12 13  2  0
 12 14  1  0
 11  7  1  0
M  END
$$$$
