
     RDKit          3D

 14 14  0  0  0  0  0  0  0  0999 V2000
    5.6268  -46.9805   -5.2902 C   0  0  0  0  0  0  0  0  0  0  0  0
    6.1155  -47.4870   -3.9222 C   0  0  0  0  0  0  0  0  0  0  0  0
    7.6154  -47.2402   -3.9850 C   0  0  0  0  0  0  0  0  0  0  0  0
    8.3846  -47.8076   -5.4850 S   0  0  0  0  0  0  0  0  0  0  0  0
    5.9021  -48.9499   -3.8993 C   0  0  0  0  0  0  0  0  0  0  0  0
    6.9902  -49.6424   -3.8835 O   0  0  0  0  0  0  0  0  0  0  0  0
    4.6536  -49.6057   -3.8987 N   0  0  0  0  0  0  0  0  0  0  0  0
    3.3036  -49.1208   -3.7101 C   0  0  0  0  0  0  0  0  0  0  0  0
    2.4987  -49.9547   -4.7202 C   0  0  0  0  0  0  0  0  0  0  0  0
    3.0557  -51.3360   -4.3420 C   0  0  0  0  0  0  0  0  0  0  0  0
    4.5186  -51.0489   -4.1338 C   0  0  0  0  0  0  0  0  0  0  0  0
    5.2119  -51.4789   -5.3804 C   0  0  0  0  0  0  0  0  0  0  0  0
    5.8324  -50.6968   -6.1393 O   0  0  0  0  0  0  0  0  0  0  0  0
    5.1475  -52.8311   -5.6901 O   0  0  0  0  0  0  0  0  0  0  0  0
  1  2  1  0
  2  3  1  0
  3  4  1  0
  2  5  1  0
  5  6  2  0
  5  7  1  0
  7  8  1  0
  8  9  1  0
  9 10  1  0
 10 11  1  0
 11 12  1  0
 12 13  2  0
 12 14  1  0
 11  7  1  0
M  END
$$$$
