
     RDKit          3D

 14 14  0  0  0  0  0  0  0  0999 V2000
   22.8566  -31.4641   32.7083 C   0  0  0  0  0  0  0  0  0  0  0  0
   22.7154  -32.9353   32.2808 C   0  0  0  0  0  0  0  0  0  0  0  0
   24.0404  -33.2160   31.5879 C   0  0  0  0  0  0  0  0  0  0  0  0
   24.4209  -34.9451   31.4173 S   0  0  0  0  0  0  0  0  0  0  0  0
   21.6522  -32.9892   31.2547 C   0  0  0  0  0  0  0  0  0  0  0  0
   22.0896  -33.0150   30.0416 O   0  0  0  0  0  0  0  0  0  0  0  0
   20.2635  -33.0081   31.5000 N   0  0  0  0  0  0  0  0  0  0  0  0
   19.4954  -33.0269   32.7259 C   0  0  0  0  0  0  0  0  0  0  0  0
   18.3077  -32.1079   32.3969 C   0  0  0  0  0  0  0  0  0  0  0  0
   17.9261  -32.7345   31.0467 C   0  0  0  0  0  0  0  0  0  0  0  0
   19.2696  -32.9934   30.4191 C   0  0  0  0  0  0  0  0  0  0  0  0
   19.5056  -31.8792   29.4587 C   0  0  0  0  0  0  0  0  0  0  0  0
   20.4445  -31.0545   29.5633 O   0  0  0  0  0  0  0  0  0  0  0  0
   18.6155  -31.7771   28.3976 O   0  0  0  0  0  0  0  0  0  0  0  0
  1  2  1  0
  2  3  1  0
  3  4  1  0
  2  5  1  0
  5  6  2  0
  5  7  1  0
  7  8  1  0
  8  9  1  0
  9 10  1  0
 10 11  1  0
 11 12  1  0
 12 13  2  0
 12 14  1  0
 11  7  1  0
M  END
$$$$
