
     RDKit          3D

 25 24  0  0  0  0  0  0  0  0999 V2000
   -8.4829    6.6614    8.2607 C   0  0  0  0  0  0  0  0  0  0  0  0
   -8.0428    7.7955    7.8583 O   0  0  0  0  0  0  0  0  0  0  0  0
   -7.5996    5.5209    8.4261 C   0  0  0  0  0  0  0  0  0  0  0  0
   -6.2657    5.5639    7.7816 C   0  0  0  0  0  0  0  0  0  0  0  0
   -5.3635    4.4045    7.9737 C   0  0  0  0  0  0  0  0  0  0  0  0
   -4.0783    4.7386    7.1832 C   0  0  0  0  0  0  0  0  0  0  0  0
   -3.0140    3.9332    7.8374 C   0  0  0  0  0  0  0  0  0  0  0  0
   -1.6616    3.9598    7.2525 C   0  0  0  0  0  0  0  0  0  0  0  0
   -0.5010    3.7107    8.1353 C   0  0  0  0  0  0  0  0  0  0  0  0
   -0.4049    4.4839    9.2549 F   0  0  0  0  0  0  0  0  0  0  0  0
    0.7096    3.6597    7.4317 F   0  0  0  0  0  0  0  0  0  0  0  0
   -0.6482    2.4013    8.6182 F   0  0  0  0  0  0  0  0  0  0  0  0
   -1.5389    3.1287    6.1493 F   0  0  0  0  0  0  0  0  0  0  0  0
   -1.4859    5.2533    6.7338 F   0  0  0  0  0  0  0  0  0  0  0  0
   -3.4841    2.6331    8.0191 F   0  0  0  0  0  0  0  0  0  0  0  0
   -2.8952    4.4483    9.1376 F   0  0  0  0  0  0  0  0  0  0  0  0
   -4.4067    4.2894    5.8950 F   0  0  0  0  0  0  0  0  0  0  0  0
   -3.8247    6.0733    7.2303 F   0  0  0  0  0  0  0  0  0  0  0  0
   -5.8130    3.2629    7.2928 F   0  0  0  0  0  0  0  0  0  0  0  0
   -4.9654    4.1517    9.2484 F   0  0  0  0  0  0  0  0  0  0  0  0
   -6.3934    5.7567    6.4144 F   0  0  0  0  0  0  0  0  0  0  0  0
   -5.6034    6.6865    8.2426 F   0  0  0  0  0  0  0  0  0  0  0  0
   -7.4146    5.2890    9.7762 F   0  0  0  0  0  0  0  0  0  0  0  0
   -8.3053    4.4064    7.9675 F   0  0  0  0  0  0  0  0  0  0  0  0
   -9.8347    6.6030    8.5214 O   0  0  0  0  0  0  0  0  0  0  0  0
  1  2  2  0
  1  3  1  0
  3  4  1  0
  4  5  1  0
  5  6  1  0
  6  7  1  0
  7  8  1  0
  8  9  1  0
  9 10  1  0
  9 11  1  0
  9 12  1  0
  8 13  1  0
  8 14  1  0
  7 15  1  0
  7 16  1  0
  6 17  1  0
  6 18  1  0
  5 19  1  0
  5 20  1  0
  4 21  1  0
  4 22  1  0
  3 23  1  0
  3 24  1  0
  1 25  1  0
M  END
$$$$
