
     RDKit          3D

 25 24  0  0  0  0  0  0  0  0999 V2000
   -7.8307    6.7715   11.3470 C   0  0  0  0  0  0  0  0  0  0  0  0
   -8.3024    7.8745   10.8967 O   0  0  0  0  0  0  0  0  0  0  0  0
   -7.0185    5.8995   10.5175 C   0  0  0  0  0  0  0  0  0  0  0  0
   -6.9835    6.1489    9.0569 C   0  0  0  0  0  0  0  0  0  0  0  0
   -6.2282    5.1986    8.2076 C   0  0  0  0  0  0  0  0  0  0  0  0
   -6.4168    5.6934    6.7558 C   0  0  0  0  0  0  0  0  0  0  0  0
   -5.6121    4.7547    5.9307 C   0  0  0  0  0  0  0  0  0  0  0  0
   -5.8381    4.7380    4.4745 C   0  0  0  0  0  0  0  0  0  0  0  0
   -4.8992    3.9801    3.6187 C   0  0  0  0  0  0  0  0  0  0  0  0
   -4.6166    4.5141    2.3957 F   0  0  0  0  0  0  0  0  0  0  0  0
   -5.2282    2.6210    3.5306 F   0  0  0  0  0  0  0  0  0  0  0  0
   -3.6701    3.9706    4.2960 F   0  0  0  0  0  0  0  0  0  0  0  0
   -7.1254    4.3483    4.1369 F   0  0  0  0  0  0  0  0  0  0  0  0
   -5.7581    6.0751    4.0516 F   0  0  0  0  0  0  0  0  0  0  0  0
   -5.6958    3.4808    6.4916 F   0  0  0  0  0  0  0  0  0  0  0  0
   -4.2745    5.1349    6.1213 F   0  0  0  0  0  0  0  0  0  0  0  0
   -7.8011    5.5474    6.5784 F   0  0  0  0  0  0  0  0  0  0  0  0
   -6.0001    6.9817    6.6348 F   0  0  0  0  0  0  0  0  0  0  0  0
   -6.8407    3.9376    8.1472 F   0  0  0  0  0  0  0  0  0  0  0  0
   -4.8859    5.1381    8.4125 F   0  0  0  0  0  0  0  0  0  0  0  0
   -8.2704    6.2164    8.5451 F   0  0  0  0  0  0  0  0  0  0  0  0
   -6.4481    7.4068    8.8501 F   0  0  0  0  0  0  0  0  0  0  0  0
   -5.7180    5.9186   10.9855 F   0  0  0  0  0  0  0  0  0  0  0  0
   -7.4642    4.5982   10.7593 F   0  0  0  0  0  0  0  0  0  0  0  0
   -8.1450    6.4769   12.6559 O   0  0  0  0  0  0  0  0  0  0  0  0
  1  2  2  0
  1  3  1  0
  3  4  1  0
  4  5  1  0
  5  6  1  0
  6  7  1  0
  7  8  1  0
  8  9  1  0
  9 10  1  0
  9 11  1  0
  9 12  1  0
  8 13  1  0
  8 14  1  0
  7 15  1  0
  7 16  1  0
  6 17  1  0
  6 18  1  0
  5 19  1  0
  5 20  1  0
  4 21  1  0
  4 22  1  0
  3 23  1  0
  3 24  1  0
  1 25  1  0
M  END
$$$$
