
     RDKit          3D

 25 24  0  0  0  0  0  0  0  0999 V2000
    4.8701    0.4660    1.1495 C   0  0  0  0  0  0  0  0  0  0  0  0
    4.5715    0.6838   -0.0774 O   0  0  0  0  0  0  0  0  0  0  0  0
    3.8488    0.4128    2.1803 C   0  0  0  0  0  0  0  0  0  0  0  0
    2.4365    0.6250    1.7840 C   0  0  0  0  0  0  0  0  0  0  0  0
    1.3891    0.4279    2.8130 C   0  0  0  0  0  0  0  0  0  0  0  0
    0.0830    0.9707    2.1902 C   0  0  0  0  0  0  0  0  0  0  0  0
   -0.8249    1.1852    3.3475 C   0  0  0  0  0  0  0  0  0  0  0  0
   -2.0525    1.9721    3.1332 C   0  0  0  0  0  0  0  0  0  0  0  0
   -3.2695    1.2753    2.6625 C   0  0  0  0  0  0  0  0  0  0  0  0
   -3.2283    0.7517    1.4036 F   0  0  0  0  0  0  0  0  0  0  0  0
   -4.4352    2.0223    2.8783 F   0  0  0  0  0  0  0  0  0  0  0  0
   -3.4378    0.1655    3.5048 F   0  0  0  0  0  0  0  0  0  0  0  0
   -2.4019    2.7312    4.2397 F   0  0  0  0  0  0  0  0  0  0  0  0
   -1.7404    2.9212    2.1457 F   0  0  0  0  0  0  0  0  0  0  0  0
   -0.0752    1.6608    4.4228 F   0  0  0  0  0  0  0  0  0  0  0  0
   -1.2380   -0.0954    3.7467 F   0  0  0  0  0  0  0  0  0  0  0  0
    0.5208    2.1635    1.5949 F   0  0  0  0  0  0  0  0  0  0  0  0
   -0.4197    0.0833    1.2915 F   0  0  0  0  0  0  0  0  0  0  0  0
    1.5491    1.2925    3.9066 F   0  0  0  0  0  0  0  0  0  0  0  0
    1.1281   -0.8564    3.1732 F   0  0  0  0  0  0  0  0  0  0  0  0
    2.2637    1.9005    1.2680 F   0  0  0  0  0  0  0  0  0  0  0  0
    2.1535   -0.2288    0.7342 F   0  0  0  0  0  0  0  0  0  0  0  0
    3.9317   -0.8037    2.8314 F   0  0  0  0  0  0  0  0  0  0  0  0
    4.2116    1.3568    3.1434 F   0  0  0  0  0  0  0  0  0  0  0  0
    6.2103    0.2886    1.4163 O   0  0  0  0  0  0  0  0  0  0  0  0
  1  2  2  0
  1  3  1  0
  3  4  1  0
  4  5  1  0
  5  6  1  0
  6  7  1  0
  7  8  1  0
  8  9  1  0
  9 10  1  0
  9 11  1  0
  9 12  1  0
  8 13  1  0
  8 14  1  0
  7 15  1  0
  7 16  1  0
  6 17  1  0
  6 18  1  0
  5 19  1  0
  5 20  1  0
  4 21  1  0
  4 22  1  0
  3 23  1  0
  3 24  1  0
  1 25  1  0
M  END
$$$$
