
     RDKit          3D

 25 24  0  0  0  0  0  0  0  0999 V2000
    8.7400   -2.5502   -9.4056 C   0  0  0  0  0  0  0  0  0  0  0  0
    9.8518   -3.0309   -9.0248 O   0  0  0  0  0  0  0  0  0  0  0  0
    8.0483   -1.4671   -8.7083 C   0  0  0  0  0  0  0  0  0  0  0  0
    7.3631   -1.9100   -7.4331 C   0  0  0  0  0  0  0  0  0  0  0  0
    6.7018   -0.7826   -6.7064 C   0  0  0  0  0  0  0  0  0  0  0  0
    6.0614   -1.0928   -5.4183 C   0  0  0  0  0  0  0  0  0  0  0  0
    5.5594   -0.0649   -4.5197 C   0  0  0  0  0  0  0  0  0  0  0  0
    4.5805   -0.3699   -3.4647 C   0  0  0  0  0  0  0  0  0  0  0  0
    4.0540    0.7993   -2.6752 C   0  0  0  0  0  0  0  0  0  0  0  0
    3.1224    1.5415   -3.3359 F   0  0  0  0  0  0  0  0  0  0  0  0
    3.3773    0.2349   -1.5834 F   0  0  0  0  0  0  0  0  0  0  0  0
    5.0877    1.5865   -2.1770 F   0  0  0  0  0  0  0  0  0  0  0  0
    3.4818   -1.0966   -3.8357 F   0  0  0  0  0  0  0  0  0  0  0  0
    5.2471   -1.1782   -2.5262 F   0  0  0  0  0  0  0  0  0  0  0  0
    4.8672    0.8249   -5.3791 F   0  0  0  0  0  0  0  0  0  0  0  0
    6.5699    0.7847   -4.0398 F   0  0  0  0  0  0  0  0  0  0  0  0
    6.8434   -1.9992   -4.7301 F   0  0  0  0  0  0  0  0  0  0  0  0
    4.9266   -1.8689   -5.7687 F   0  0  0  0  0  0  0  0  0  0  0  0
    5.9928   -0.0603   -7.6169 F   0  0  0  0  0  0  0  0  0  0  0  0
    7.7497    0.0909   -6.3476 F   0  0  0  0  0  0  0  0  0  0  0  0
    8.3888   -2.4816   -6.6689 F   0  0  0  0  0  0  0  0  0  0  0  0
    6.5047   -2.9663   -7.6582 F   0  0  0  0  0  0  0  0  0  0  0  0
    8.9375   -0.4486   -8.3391 F   0  0  0  0  0  0  0  0  0  0  0  0
    7.1274   -0.8608   -9.5403 F   0  0  0  0  0  0  0  0  0  0  0  0
    8.1315   -3.0784  -10.5567 O   0  0  0  0  0  0  0  0  0  0  0  0
  1  2  2  0
  1  3  1  0
  3  4  1  0
  4  5  1  0
  5  6  1  0
  6  7  1  0
  7  8  1  0
  8  9  1  0
  9 10  1  0
  9 11  1  0
  9 12  1  0
  8 13  1  0
  8 14  1  0
  7 15  1  0
  7 16  1  0
  6 17  1  0
  6 18  1  0
  5 19  1  0
  5 20  1  0
  4 21  1  0
  4 22  1  0
  3 23  1  0
  3 24  1  0
  1 25  1  0
M  END
$$$$
