
     RDKit          3D

 25 24  0  0  0  0  0  0  0  0999 V2000
    8.9253   -1.5413   -9.0699 C   0  0  0  0  0  0  0  0  0  0  0  0
   10.0307   -1.2311   -8.5276 O   0  0  0  0  0  0  0  0  0  0  0  0
    7.6259   -1.1108   -8.5561 C   0  0  0  0  0  0  0  0  0  0  0  0
    7.4414   -1.3799   -7.0778 C   0  0  0  0  0  0  0  0  0  0  0  0
    6.1274   -0.8911   -6.5572 C   0  0  0  0  0  0  0  0  0  0  0  0
    5.9950   -0.7327   -5.1002 C   0  0  0  0  0  0  0  0  0  0  0  0
    4.9360    0.0527   -4.4856 C   0  0  0  0  0  0  0  0  0  0  0  0
    4.6255   -0.0547   -3.0516 C   0  0  0  0  0  0  0  0  0  0  0  0
    3.7587    1.0288   -2.4666 C   0  0  0  0  0  0  0  0  0  0  0  0
    2.5144    1.1022   -3.0159 F   0  0  0  0  0  0  0  0  0  0  0  0
    3.5560    0.6595   -1.1283 F   0  0  0  0  0  0  0  0  0  0  0  0
    4.4048    2.2613   -2.4768 F   0  0  0  0  0  0  0  0  0  0  0  0
    4.0850   -1.2376   -2.6255 F   0  0  0  0  0  0  0  0  0  0  0  0
    5.8522    0.0469   -2.3710 F   0  0  0  0  0  0  0  0  0  0  0  0
    3.7587   -0.4115   -5.1243 F   0  0  0  0  0  0  0  0  0  0  0  0
    4.9358    1.3940   -4.9026 F   0  0  0  0  0  0  0  0  0  0  0  0
    7.2229   -0.3923   -4.5680 F   0  0  0  0  0  0  0  0  0  0  0  0
    5.8069   -2.0542   -4.6194 F   0  0  0  0  0  0  0  0  0  0  0  0
    5.1434   -1.5576   -7.2213 F   0  0  0  0  0  0  0  0  0  0  0  0
    6.0060    0.4284   -7.0411 F   0  0  0  0  0  0  0  0  0  0  0  0
    8.5139   -0.7161   -6.4680 F   0  0  0  0  0  0  0  0  0  0  0  0
    7.6687   -2.7055   -6.7705 F   0  0  0  0  0  0  0  0  0  0  0  0
    7.4415    0.2681   -8.7269 F   0  0  0  0  0  0  0  0  0  0  0  0
    6.5998   -1.7047   -9.2648 F   0  0  0  0  0  0  0  0  0  0  0  0
    8.9376   -2.3404  -10.2255 O   0  0  0  0  0  0  0  0  0  0  0  0
  1  2  2  0
  1  3  1  0
  3  4  1  0
  4  5  1  0
  5  6  1  0
  6  7  1  0
  7  8  1  0
  8  9  1  0
  9 10  1  0
  9 11  1  0
  9 12  1  0
  8 13  1  0
  8 14  1  0
  7 15  1  0
  7 16  1  0
  6 17  1  0
  6 18  1  0
  5 19  1  0
  5 20  1  0
  4 21  1  0
  4 22  1  0
  3 23  1  0
  3 24  1  0
  1 25  1  0
M  END
$$$$
