
     RDKit          3D

 25 24  0  0  0  0  0  0  0  0999 V2000
    8.9968   -1.6982  -10.9584 C   0  0  0  0  0  0  0  0  0  0  0  0
   10.1702   -1.2626  -11.1714 O   0  0  0  0  0  0  0  0  0  0  0  0
    8.5980   -2.3708   -9.7228 C   0  0  0  0  0  0  0  0  0  0  0  0
    8.3899   -1.4243   -8.5598 C   0  0  0  0  0  0  0  0  0  0  0  0
    7.5282   -2.0050   -7.4843 C   0  0  0  0  0  0  0  0  0  0  0  0
    6.9584   -1.0728   -6.4984 C   0  0  0  0  0  0  0  0  0  0  0  0
    5.8663   -1.4364   -5.6091 C   0  0  0  0  0  0  0  0  0  0  0  0
    5.6573   -0.7561   -4.3215 C   0  0  0  0  0  0  0  0  0  0  0  0
    4.3480   -1.0178   -3.6254 C   0  0  0  0  0  0  0  0  0  0  0  0
    4.3446   -0.6844   -2.3047 F   0  0  0  0  0  0  0  0  0  0  0  0
    3.4257   -0.1522   -4.2324 F   0  0  0  0  0  0  0  0  0  0  0  0
    3.9108   -2.3225   -3.8332 F   0  0  0  0  0  0  0  0  0  0  0  0
    6.6273   -0.9256   -3.3711 F   0  0  0  0  0  0  0  0  0  0  0  0
    5.6594    0.6234   -4.5964 F   0  0  0  0  0  0  0  0  0  0  0  0
    6.1610   -2.7739   -5.2433 F   0  0  0  0  0  0  0  0  0  0  0  0
    4.6487   -1.6232   -6.2842 F   0  0  0  0  0  0  0  0  0  0  0  0
    6.7010    0.1361   -7.1140 F   0  0  0  0  0  0  0  0  0  0  0  0
    8.0464   -0.7577   -5.6441 F   0  0  0  0  0  0  0  0  0  0  0  0
    8.1408   -3.1299   -7.0230 F   0  0  0  0  0  0  0  0  0  0  0  0
    6.3921   -2.5077   -8.1523 F   0  0  0  0  0  0  0  0  0  0  0  0
    7.7989   -0.2921   -9.1355 F   0  0  0  0  0  0  0  0  0  0  0  0
    9.5892   -0.9468   -8.0726 F   0  0  0  0  0  0  0  0  0  0  0  0
    7.3885   -3.0601   -9.8851 F   0  0  0  0  0  0  0  0  0  0  0  0
    9.5217   -3.3361   -9.3726 F   0  0  0  0  0  0  0  0  0  0  0  0
    8.0203   -1.5315  -11.9548 O   0  0  0  0  0  0  0  0  0  0  0  0
  1  2  2  0
  1  3  1  0
  3  4  1  0
  4  5  1  0
  5  6  1  0
  6  7  1  0
  7  8  1  0
  8  9  1  0
  9 10  1  0
  9 11  1  0
  9 12  1  0
  8 13  1  0
  8 14  1  0
  7 15  1  0
  7 16  1  0
  6 17  1  0
  6 18  1  0
  5 19  1  0
  5 20  1  0
  4 21  1  0
  4 22  1  0
  3 23  1  0
  3 24  1  0
  1 25  1  0
M  END
$$$$
