
     RDKit          3D

 25 24  0  0  0  0  0  0  0  0999 V2000
    9.3959   -2.8703  -10.5678 C   0  0  0  0  0  0  0  0  0  0  0  0
   10.4413   -3.5498  -10.3284 O   0  0  0  0  0  0  0  0  0  0  0  0
    8.8634   -1.8605   -9.6542 C   0  0  0  0  0  0  0  0  0  0  0  0
    7.9560   -2.4313   -8.5852 C   0  0  0  0  0  0  0  0  0  0  0  0
    7.4572   -1.3936   -7.6308 C   0  0  0  0  0  0  0  0  0  0  0  0
    6.8509   -1.8661   -6.3759 C   0  0  0  0  0  0  0  0  0  0  0  0
    6.1468   -0.9830   -5.4592 C   0  0  0  0  0  0  0  0  0  0  0  0
    5.0587   -1.4704   -4.5973 C   0  0  0  0  0  0  0  0  0  0  0  0
    4.5231   -0.5027   -3.5754 C   0  0  0  0  0  0  0  0  0  0  0  0
    3.9205    0.5948   -4.1119 F   0  0  0  0  0  0  0  0  0  0  0  0
    3.5060   -1.1975   -2.9039 F   0  0  0  0  0  0  0  0  0  0  0  0
    5.4943   -0.1574   -2.6405 F   0  0  0  0  0  0  0  0  0  0  0  0
    3.9626   -1.9950   -5.2269 F   0  0  0  0  0  0  0  0  0  0  0  0
    5.5907   -2.5374   -3.8512 F   0  0  0  0  0  0  0  0  0  0  0  0
    5.5109   -0.0480   -6.3141 F   0  0  0  0  0  0  0  0  0  0  0  0
    7.0080   -0.1295   -4.7500 F   0  0  0  0  0  0  0  0  0  0  0  0
    7.7671   -2.6425   -5.6943 F   0  0  0  0  0  0  0  0  0  0  0  0
    5.8862   -2.8204   -6.7900 F   0  0  0  0  0  0  0  0  0  0  0  0
    6.7870   -0.4534   -8.3520 F   0  0  0  0  0  0  0  0  0  0  0  0
    8.6100   -0.7058   -7.1973 F   0  0  0  0  0  0  0  0  0  0  0  0
    8.7454   -3.3891   -7.9355 F   0  0  0  0  0  0  0  0  0  0  0  0
    6.9329   -3.1776   -9.1328 F   0  0  0  0  0  0  0  0  0  0  0  0
    9.8925   -1.1932   -8.9759 F   0  0  0  0  0  0  0  0  0  0  0  0
    8.1914   -0.8763  -10.3526 F   0  0  0  0  0  0  0  0  0  0  0  0
    8.7047   -3.0907  -11.7710 O   0  0  0  0  0  0  0  0  0  0  0  0
  1  2  2  0
  1  3  1  0
  3  4  1  0
  4  5  1  0
  5  6  1  0
  6  7  1  0
  7  8  1  0
  8  9  1  0
  9 10  1  0
  9 11  1  0
  9 12  1  0
  8 13  1  0
  8 14  1  0
  7 15  1  0
  7 16  1  0
  6 17  1  0
  6 18  1  0
  5 19  1  0
  5 20  1  0
  4 21  1  0
  4 22  1  0
  3 23  1  0
  3 24  1  0
  1 25  1  0
M  END
$$$$
