
     RDKit          3D

 25 24  0  0  0  0  0  0  0  0999 V2000
    8.8043   -2.0559   -9.3399 C   0  0  0  0  0  0  0  0  0  0  0  0
   10.0254   -2.2307   -9.0394 O   0  0  0  0  0  0  0  0  0  0  0  0
    7.9521   -1.0535   -8.7020 C   0  0  0  0  0  0  0  0  0  0  0  0
    7.4060   -1.4908   -7.3595 C   0  0  0  0  0  0  0  0  0  0  0  0
    6.6143   -0.4212   -6.6772 C   0  0  0  0  0  0  0  0  0  0  0  0
    6.0863   -0.7226   -5.3371 C   0  0  0  0  0  0  0  0  0  0  0  0
    5.2301    0.1955   -4.6022 C   0  0  0  0  0  0  0  0  0  0  0  0
    4.6112   -0.1805   -3.3216 C   0  0  0  0  0  0  0  0  0  0  0  0
    3.9063    0.9150   -2.5663 C   0  0  0  0  0  0  0  0  0  0  0  0
    3.5731    0.5829   -1.2880 F   0  0  0  0  0  0  0  0  0  0  0  0
    4.8463    1.9502   -2.4512 F   0  0  0  0  0  0  0  0  0  0  0  0
    2.8151    1.4053   -3.2771 F   0  0  0  0  0  0  0  0  0  0  0  0
    3.7431   -1.2382   -3.3444 F   0  0  0  0  0  0  0  0  0  0  0  0
    5.6598   -0.5929   -2.4798 F   0  0  0  0  0  0  0  0  0  0  0  0
    4.1258    0.3928   -5.4689 F   0  0  0  0  0  0  0  0  0  0  0  0
    5.7445    1.5015   -4.5496 F   0  0  0  0  0  0  0  0  0  0  0  0
    7.1162   -1.1731   -4.5351 F   0  0  0  0  0  0  0  0  0  0  0  0
    5.3062   -1.8931   -5.5227 F   0  0  0  0  0  0  0  0  0  0  0  0
    5.7642    0.1161   -7.5949 F   0  0  0  0  0  0  0  0  0  0  0  0
    7.5326    0.6228   -6.4386 F   0  0  0  0  0  0  0  0  0  0  0  0
    8.5433   -1.8388   -6.6192 F   0  0  0  0  0  0  0  0  0  0  0  0
    6.7111   -2.6788   -7.4564 F   0  0  0  0  0  0  0  0  0  0  0  0
    8.6532    0.1374   -8.4680 F   0  0  0  0  0  0  0  0  0  0  0  0
    6.9064   -0.7016   -9.5331 F   0  0  0  0  0  0  0  0  0  0  0  0
    8.2292   -2.8618  -10.3369 O   0  0  0  0  0  0  0  0  0  0  0  0
  1  2  2  0
  1  3  1  0
  3  4  1  0
  4  5  1  0
  5  6  1  0
  6  7  1  0
  7  8  1  0
  8  9  1  0
  9 10  1  0
  9 11  1  0
  9 12  1  0
  8 13  1  0
  8 14  1  0
  7 15  1  0
  7 16  1  0
  6 17  1  0
  6 18  1  0
  5 19  1  0
  5 20  1  0
  4 21  1  0
  4 22  1  0
  3 23  1  0
  3 24  1  0
  1 25  1  0
M  END
$$$$
