
     RDKit          3D

 25 24  0  0  0  0  0  0  0  0999 V2000
    9.0233   -2.0393   -9.2415 C   0  0  0  0  0  0  0  0  0  0  0  0
    8.8528   -3.2764   -9.4707 O   0  0  0  0  0  0  0  0  0  0  0  0
    7.9736   -1.1625   -8.7244 C   0  0  0  0  0  0  0  0  0  0  0  0
    7.5484   -1.4977   -7.3107 C   0  0  0  0  0  0  0  0  0  0  0  0
    6.5117   -0.5610   -6.7776 C   0  0  0  0  0  0  0  0  0  0  0  0
    6.0241   -0.8008   -5.4100 C   0  0  0  0  0  0  0  0  0  0  0  0
    4.8970   -0.0812   -4.8373 C   0  0  0  0  0  0  0  0  0  0  0  0
    4.5651   -0.1747   -3.4072 C   0  0  0  0  0  0  0  0  0  0  0  0
    3.5178    0.7781   -2.8945 C   0  0  0  0  0  0  0  0  0  0  0  0
    3.3548    0.7495   -1.5425 F   0  0  0  0  0  0  0  0  0  0  0  0
    4.0084    2.0599   -3.1854 F   0  0  0  0  0  0  0  0  0  0  0  0
    2.3099    0.6197   -3.5671 F   0  0  0  0  0  0  0  0  0  0  0  0
    4.2099   -1.4100   -2.9371 F   0  0  0  0  0  0  0  0  0  0  0  0
    5.7384    0.1545   -2.7049 F   0  0  0  0  0  0  0  0  0  0  0  0
    3.7711   -0.6480   -5.4858 F   0  0  0  0  0  0  0  0  0  0  0  0
    4.8064    1.2453   -5.2904 F   0  0  0  0  0  0  0  0  0  0  0  0
    7.0960   -0.7959   -4.5395 F   0  0  0  0  0  0  0  0  0  0  0  0
    5.6345   -2.1651   -5.4108 F   0  0  0  0  0  0  0  0  0  0  0  0
    5.5910   -0.3575   -7.7596 F   0  0  0  0  0  0  0  0  0  0  0  0
    7.1588    0.6886   -6.6786 F   0  0  0  0  0  0  0  0  0  0  0  0
    8.7334   -1.4290   -6.5667 F   0  0  0  0  0  0  0  0  0  0  0  0
    7.1728   -2.8201   -7.1933 F   0  0  0  0  0  0  0  0  0  0  0  0
    8.3931    0.1746   -8.6982 F   0  0  0  0  0  0  0  0  0  0  0  0
    6.8699   -1.1804   -9.5548 F   0  0  0  0  0  0  0  0  0  0  0  0
   10.2829   -1.4703   -9.4938 O   0  0  0  0  0  0  0  0  0  0  0  0
  1  2  2  0
  1  3  1  0
  3  4  1  0
  4  5  1  0
  5  6  1  0
  6  7  1  0
  7  8  1  0
  8  9  1  0
  9 10  1  0
  9 11  1  0
  9 12  1  0
  8 13  1  0
  8 14  1  0
  7 15  1  0
  7 16  1  0
  6 17  1  0
  6 18  1  0
  5 19  1  0
  5 20  1  0
  4 21  1  0
  4 22  1  0
  3 23  1  0
  3 24  1  0
  1 25  1  0
M  END
$$$$
