
     RDKit          3D

 25 24  0  0  0  0  0  0  0  0999 V2000
    9.5324   -2.3166   -9.2510 C   0  0  0  0  0  0  0  0  0  0  0  0
   10.7572   -2.0784   -9.0164 O   0  0  0  0  0  0  0  0  0  0  0  0
    8.5339   -2.5159   -8.2016 C   0  0  0  0  0  0  0  0  0  0  0  0
    8.2224   -1.2589   -7.4176 C   0  0  0  0  0  0  0  0  0  0  0  0
    7.0132   -1.3999   -6.5489 C   0  0  0  0  0  0  0  0  0  0  0  0
    6.7204   -0.3006   -5.6154 C   0  0  0  0  0  0  0  0  0  0  0  0
    5.4635   -0.1954   -4.8908 C   0  0  0  0  0  0  0  0  0  0  0  0
    5.3998    0.3532   -3.5273 C   0  0  0  0  0  0  0  0  0  0  0  0
    4.0254    0.5906   -2.9597 C   0  0  0  0  0  0  0  0  0  0  0  0
    3.0850    0.9042   -3.8939 F   0  0  0  0  0  0  0  0  0  0  0  0
    3.6261   -0.6440   -2.4263 F   0  0  0  0  0  0  0  0  0  0  0  0
    4.0545    1.5159   -1.9207 F   0  0  0  0  0  0  0  0  0  0  0  0
    6.0935   -0.3211   -2.5592 F   0  0  0  0  0  0  0  0  0  0  0  0
    6.0005    1.6239   -3.5821 F   0  0  0  0  0  0  0  0  0  0  0  0
    5.0509   -1.5427   -4.7350 F   0  0  0  0  0  0  0  0  0  0  0  0
    4.4139    0.2986   -5.6828 F   0  0  0  0  0  0  0  0  0  0  0  0
    7.0354    0.9013   -6.2178 F   0  0  0  0  0  0  0  0  0  0  0  0
    7.7198   -0.4147   -4.6148 F   0  0  0  0  0  0  0  0  0  0  0  0
    6.9945   -2.6727   -6.0661 F   0  0  0  0  0  0  0  0  0  0  0  0
    5.9164   -1.3755   -7.4357 F   0  0  0  0  0  0  0  0  0  0  0  0
    8.0379   -0.2754   -8.3981 F   0  0  0  0  0  0  0  0  0  0  0  0
    9.3236   -0.8107   -6.7176 F   0  0  0  0  0  0  0  0  0  0  0  0
    7.3143   -2.9546   -8.7349 F   0  0  0  0  0  0  0  0  0  0  0  0
    8.9307   -3.5145   -7.3338 F   0  0  0  0  0  0  0  0  0  0  0  0
    9.1006   -2.3955  -10.5857 O   0  0  0  0  0  0  0  0  0  0  0  0
  1  2  2  0
  1  3  1  0
  3  4  1  0
  4  5  1  0
  5  6  1  0
  6  7  1  0
  7  8  1  0
  8  9  1  0
  9 10  1  0
  9 11  1  0
  9 12  1  0
  8 13  1  0
  8 14  1  0
  7 15  1  0
  7 16  1  0
  6 17  1  0
  6 18  1  0
  5 19  1  0
  5 20  1  0
  4 21  1  0
  4 22  1  0
  3 23  1  0
  3 24  1  0
  1 25  1  0
M  END
$$$$
