
     RDKit          3D

 25 24  0  0  0  0  0  0  0  0999 V2000
    5.6831    5.6513   -9.0844 C   0  0  0  0  0  0  0  0  0  0  0  0
    6.2450    4.6028   -9.4662 O   0  0  0  0  0  0  0  0  0  0  0  0
    6.3623    6.6800   -8.2110 C   0  0  0  0  0  0  0  0  0  0  0  0
    7.7308    6.2312   -7.8188 C   0  0  0  0  0  0  0  0  0  0  0  0
    8.4664    7.0399   -6.8203 C   0  0  0  0  0  0  0  0  0  0  0  0
    9.8330    6.6090   -6.4436 C   0  0  0  0  0  0  0  0  0  0  0  0
   10.3456    7.4677   -5.2646 C   0  0  0  0  0  0  0  0  0  0  0  0
   11.5965    6.9123   -4.6974 C   0  0  0  0  0  0  0  0  0  0  0  0
   12.1988    7.8827   -3.6736 C   0  0  0  0  0  0  0  0  0  0  0  0
   11.3273    7.9669   -2.6036 F   0  0  0  0  0  0  0  0  0  0  0  0
   12.3429    9.1078   -4.3025 F   0  0  0  0  0  0  0  0  0  0  0  0
   13.4436    7.4560   -3.2599 F   0  0  0  0  0  0  0  0  0  0  0  0
   12.5934    6.7210   -5.6306 F   0  0  0  0  0  0  0  0  0  0  0  0
   11.3759    5.7248   -4.0410 F   0  0  0  0  0  0  0  0  0  0  0  0
    9.3618    7.4157   -4.3097 F   0  0  0  0  0  0  0  0  0  0  0  0
   10.5185    8.7750   -5.6545 F   0  0  0  0  0  0  0  0  0  0  0  0
   10.7743    6.8645   -7.4380 F   0  0  0  0  0  0  0  0  0  0  0  0
    9.9711    5.3104   -6.0626 F   0  0  0  0  0  0  0  0  0  0  0  0
    8.5135    8.3922   -7.1542 F   0  0  0  0  0  0  0  0  0  0  0  0
    7.6953    7.0192   -5.6432 F   0  0  0  0  0  0  0  0  0  0  0  0
    7.5684    4.9144   -7.3517 F   0  0  0  0  0  0  0  0  0  0  0  0
    8.4793    6.0414   -8.9917 F   0  0  0  0  0  0  0  0  0  0  0  0
    5.5448    6.9419   -7.1515 F   0  0  0  0  0  0  0  0  0  0  0  0
    6.4467    7.7964   -9.0582 F   0  0  0  0  0  0  0  0  0  0  0  0
    4.3548    5.9303   -9.4609 O   0  0  0  0  0  0  0  0  0  0  0  0
  1  2  2  0
  1  3  1  0
  3  4  1  0
  4  5  1  0
  5  6  1  0
  6  7  1  0
  7  8  1  0
  8  9  1  0
  9 10  1  0
  9 11  1  0
  9 12  1  0
  8 13  1  0
  8 14  1  0
  7 15  1  0
  7 16  1  0
  6 17  1  0
  6 18  1  0
  5 19  1  0
  5 20  1  0
  4 21  1  0
  4 22  1  0
  3 23  1  0
  3 24  1  0
  1 25  1  0
M  END
$$$$
