
     RDKit          3D

 25 24  0  0  0  0  0  0  0  0999 V2000
   19.5458   -1.5495   -1.4586 C   0  0  0  0  0  0  0  0  0  0  0  0
   20.5518   -1.7928   -2.1584 O   0  0  0  0  0  0  0  0  0  0  0  0
   18.3448   -0.7927   -1.9755 C   0  0  0  0  0  0  0  0  0  0  0  0
   18.1072    0.4460   -1.1774 C   0  0  0  0  0  0  0  0  0  0  0  0
   17.0069    1.3426   -1.5995 C   0  0  0  0  0  0  0  0  0  0  0  0
   16.6855    2.5052   -0.7392 C   0  0  0  0  0  0  0  0  0  0  0  0
   15.5984    3.3716   -1.4157 C   0  0  0  0  0  0  0  0  0  0  0  0
   15.1505    4.4671   -0.5246 C   0  0  0  0  0  0  0  0  0  0  0  0
   14.0030    5.2513   -1.1732 C   0  0  0  0  0  0  0  0  0  0  0  0
   14.4239    5.6647   -2.4236 F   0  0  0  0  0  0  0  0  0  0  0  0
   13.7273    6.3320   -0.3527 F   0  0  0  0  0  0  0  0  0  0  0  0
   12.8661    4.4761   -1.2698 F   0  0  0  0  0  0  0  0  0  0  0  0
   16.1233    5.4108   -0.2712 F   0  0  0  0  0  0  0  0  0  0  0  0
   14.6799    3.9887    0.6751 F   0  0  0  0  0  0  0  0  0  0  0  0
   14.5420    2.5282   -1.6509 F   0  0  0  0  0  0  0  0  0  0  0  0
   16.0490    3.8660   -2.6172 F   0  0  0  0  0  0  0  0  0  0  0  0
   17.7493    3.3955   -0.6129 F   0  0  0  0  0  0  0  0  0  0  0  0
   16.2289    2.2213    0.5105 F   0  0  0  0  0  0  0  0  0  0  0  0
   17.1578    1.7984   -2.9078 F   0  0  0  0  0  0  0  0  0  0  0  0
   15.8462    0.5492   -1.6601 F   0  0  0  0  0  0  0  0  0  0  0  0
   17.8924    0.0017    0.1397 F   0  0  0  0  0  0  0  0  0  0  0  0
   19.3271    1.1324   -1.0656 F   0  0  0  0  0  0  0  0  0  0  0  0
   17.2821   -1.6470   -1.9945 F   0  0  0  0  0  0  0  0  0  0  0  0
   18.7318   -0.4559   -3.2825 F   0  0  0  0  0  0  0  0  0  0  0  0
   19.4834   -1.9811   -0.1192 O   0  0  0  0  0  0  0  0  0  0  0  0
  1  2  2  0
  1  3  1  0
  3  4  1  0
  4  5  1  0
  5  6  1  0
  6  7  1  0
  7  8  1  0
  8  9  1  0
  9 10  1  0
  9 11  1  0
  9 12  1  0
  8 13  1  0
  8 14  1  0
  7 15  1  0
  7 16  1  0
  6 17  1  0
  6 18  1  0
  5 19  1  0
  5 20  1  0
  4 21  1  0
  4 22  1  0
  3 23  1  0
  3 24  1  0
  1 25  1  0
M  END
$$$$
