
     RDKit          3D

 25 24  0  0  0  0  0  0  0  0999 V2000
   12.4528    8.5762   -7.7671 C   0  0  0  0  0  0  0  0  0  0  0  0
   13.2482    7.6175   -7.6708 O   0  0  0  0  0  0  0  0  0  0  0  0
   11.0616    8.5559   -7.1785 C   0  0  0  0  0  0  0  0  0  0  0  0
   10.1199    7.7974   -8.0537 C   0  0  0  0  0  0  0  0  0  0  0  0
    8.6907    7.7622   -7.6683 C   0  0  0  0  0  0  0  0  0  0  0  0
    7.7673    6.9431   -8.4877 C   0  0  0  0  0  0  0  0  0  0  0  0
    6.3125    7.1619   -8.0123 C   0  0  0  0  0  0  0  0  0  0  0  0
    5.3834    6.2101   -8.6647 C   0  0  0  0  0  0  0  0  0  0  0  0
    4.0272    6.2075   -7.9483 C   0  0  0  0  0  0  0  0  0  0  0  0
    3.3841    7.3933   -8.2512 F   0  0  0  0  0  0  0  0  0  0  0  0
    4.2787    6.1042   -6.5907 F   0  0  0  0  0  0  0  0  0  0  0  0
    3.2657    5.1240   -8.3343 F   0  0  0  0  0  0  0  0  0  0  0  0
    5.8082    4.8991   -8.6199 F   0  0  0  0  0  0  0  0  0  0  0  0
    5.1429    6.5490   -9.9750 F   0  0  0  0  0  0  0  0  0  0  0  0
    5.9834    8.4382   -8.3936 F   0  0  0  0  0  0  0  0  0  0  0  0
    6.2300    7.0716   -6.6426 F   0  0  0  0  0  0  0  0  0  0  0  0
    7.9462    5.5746   -8.2999 F   0  0  0  0  0  0  0  0  0  0  0  0
    7.7752    7.1847   -9.8264 F   0  0  0  0  0  0  0  0  0  0  0  0
    8.5038    7.4206   -6.3301 F   0  0  0  0  0  0  0  0  0  0  0  0
    8.2259    9.0887   -7.7364 F   0  0  0  0  0  0  0  0  0  0  0  0
   10.2636    8.3663   -9.3320 F   0  0  0  0  0  0  0  0  0  0  0  0
   10.6429    6.5077   -8.2407 F   0  0  0  0  0  0  0  0  0  0  0  0
   10.6806    9.8448   -6.9479 F   0  0  0  0  0  0  0  0  0  0  0  0
   11.2493    7.8715   -5.9671 F   0  0  0  0  0  0  0  0  0  0  0  0
   12.8265    9.7516   -8.4473 O   0  0  0  0  0  0  0  0  0  0  0  0
  1  2  2  0
  1  3  1  0
  3  4  1  0
  4  5  1  0
  5  6  1  0
  6  7  1  0
  7  8  1  0
  8  9  1  0
  9 10  1  0
  9 11  1  0
  9 12  1  0
  8 13  1  0
  8 14  1  0
  7 15  1  0
  7 16  1  0
  6 17  1  0
  6 18  1  0
  5 19  1  0
  5 20  1  0
  4 21  1  0
  4 22  1  0
  3 23  1  0
  3 24  1  0
  1 25  1  0
M  END
$$$$
