
     RDKit          3D

 25 24  0  0  0  0  0  0  0  0999 V2000
   -1.5998  -11.2269  -30.8077 C   0  0  0  0  0  0  0  0  0  0  0  0
   -2.8137  -10.9919  -30.6279 O   0  0  0  0  0  0  0  0  0  0  0  0
   -0.5114  -10.6676  -29.9217 C   0  0  0  0  0  0  0  0  0  0  0  0
   -1.0910   -9.9221  -28.7657 C   0  0  0  0  0  0  0  0  0  0  0  0
   -0.1556   -9.2611  -27.8274 C   0  0  0  0  0  0  0  0  0  0  0  0
   -0.7205   -8.3470  -26.8074 C   0  0  0  0  0  0  0  0  0  0  0  0
    0.3928   -7.8995  -25.8324 C   0  0  0  0  0  0  0  0  0  0  0  0
   -0.0719   -6.8038  -24.9503 C   0  0  0  0  0  0  0  0  0  0  0  0
    1.1121   -6.1779  -24.2026 C   0  0  0  0  0  0  0  0  0  0  0  0
    1.7996   -7.1954  -23.5672 F   0  0  0  0  0  0  0  0  0  0  0  0
    0.5925   -5.2756  -23.2900 F   0  0  0  0  0  0  0  0  0  0  0  0
    1.9391   -5.4940  -25.0693 F   0  0  0  0  0  0  0  0  0  0  0  0
   -0.9363   -7.2168  -23.9586 F   0  0  0  0  0  0  0  0  0  0  0  0
   -0.6728   -5.7942  -25.6639 F   0  0  0  0  0  0  0  0  0  0  0  0
    1.4144   -7.4339  -26.6211 F   0  0  0  0  0  0  0  0  0  0  0  0
    0.8506   -8.9661  -25.0950 F   0  0  0  0  0  0  0  0  0  0  0  0
   -1.6309   -8.9761  -25.9617 F   0  0  0  0  0  0  0  0  0  0  0  0
   -1.3028   -7.2098  -27.2748 F   0  0  0  0  0  0  0  0  0  0  0  0
    0.6860  -10.1655  -27.1822 F   0  0  0  0  0  0  0  0  0  0  0  0
    0.7257   -8.4965  -28.6143 F   0  0  0  0  0  0  0  0  0  0  0  0
   -1.9581   -8.9724  -29.3355 F   0  0  0  0  0  0  0  0  0  0  0  0
   -1.9827  -10.7779  -28.0990 F   0  0  0  0  0  0  0  0  0  0  0  0
    0.3223   -9.9176  -30.6974 F   0  0  0  0  0  0  0  0  0  0  0  0
    0.1422  -11.8247  -29.4686 F   0  0  0  0  0  0  0  0  0  0  0  0
   -1.1788  -12.0461  -31.8733 O   0  0  0  0  0  0  0  0  0  0  0  0
  1  2  2  0
  1  3  1  0
  3  4  1  0
  4  5  1  0
  5  6  1  0
  6  7  1  0
  7  8  1  0
  8  9  1  0
  9 10  1  0
  9 11  1  0
  9 12  1  0
  8 13  1  0
  8 14  1  0
  7 15  1  0
  7 16  1  0
  6 17  1  0
  6 18  1  0
  5 19  1  0
  5 20  1  0
  4 21  1  0
  4 22  1  0
  3 23  1  0
  3 24  1  0
  1 25  1  0
M  END
$$$$
