
     RDKit          3D

 25 24  0  0  0  0  0  0  0  0999 V2000
   16.4750   -4.0474    3.7779 C   0  0  0  0  0  0  0  0  0  0  0  0
   15.9172   -3.0067    3.3693 O   0  0  0  0  0  0  0  0  0  0  0  0
   16.6513   -5.2794    2.9214 C   0  0  0  0  0  0  0  0  0  0  0  0
   16.0261   -5.0932    1.5788 C   0  0  0  0  0  0  0  0  0  0  0  0
   16.1381   -6.2003    0.6020 C   0  0  0  0  0  0  0  0  0  0  0  0
   15.4140   -6.0717   -0.6841 C   0  0  0  0  0  0  0  0  0  0  0  0
   15.6606   -7.3280   -1.5508 C   0  0  0  0  0  0  0  0  0  0  0  0
   14.9766   -7.2218   -2.8606 C   0  0  0  0  0  0  0  0  0  0  0  0
   15.1826   -8.5026   -3.6791 C   0  0  0  0  0  0  0  0  0  0  0  0
   14.6357   -9.5544   -2.9678 F   0  0  0  0  0  0  0  0  0  0  0  0
   16.5466   -8.6668   -3.8508 F   0  0  0  0  0  0  0  0  0  0  0  0
   14.5965   -8.3945   -4.9232 F   0  0  0  0  0  0  0  0  0  0  0  0
   15.4624   -6.2099   -3.6614 F   0  0  0  0  0  0  0  0  0  0  0  0
   13.6199   -7.0539   -2.7156 F   0  0  0  0  0  0  0  0  0  0  0  0
   15.1208   -8.3767   -0.8499 F   0  0  0  0  0  0  0  0  0  0  0  0
   17.0080   -7.5488   -1.7143 F   0  0  0  0  0  0  0  0  0  0  0  0
   15.9117   -5.0468   -1.4853 F   0  0  0  0  0  0  0  0  0  0  0  0
   14.0646   -5.9192   -0.6026 F   0  0  0  0  0  0  0  0  0  0  0  0
   17.4610   -6.5394    0.3241 F   0  0  0  0  0  0  0  0  0  0  0  0
   15.6321   -7.3483    1.2398 F   0  0  0  0  0  0  0  0  0  0  0  0
   14.6730   -4.8094    1.8372 F   0  0  0  0  0  0  0  0  0  0  0  0
   16.4895   -3.8786    1.0477 F   0  0  0  0  0  0  0  0  0  0  0  0
   16.1625   -6.3487    3.6121 F   0  0  0  0  0  0  0  0  0  0  0  0
   18.0467   -5.3690    2.7938 F   0  0  0  0  0  0  0  0  0  0  0  0
   16.9786   -4.1220    5.0912 O   0  0  0  0  0  0  0  0  0  0  0  0
  1  2  2  0
  1  3  1  0
  3  4  1  0
  4  5  1  0
  5  6  1  0
  6  7  1  0
  7  8  1  0
  8  9  1  0
  9 10  1  0
  9 11  1  0
  9 12  1  0
  8 13  1  0
  8 14  1  0
  7 15  1  0
  7 16  1  0
  6 17  1  0
  6 18  1  0
  5 19  1  0
  5 20  1  0
  4 21  1  0
  4 22  1  0
  3 23  1  0
  3 24  1  0
  1 25  1  0
M  END
$$$$
