
     RDKit          3D

 25 24  0  0  0  0  0  0  0  0999 V2000
   12.3271    8.7651   -7.4839 C   0  0  0  0  0  0  0  0  0  0  0  0
   13.0174    8.8626   -8.5207 O   0  0  0  0  0  0  0  0  0  0  0  0
   11.2527    7.7184   -7.3038 C   0  0  0  0  0  0  0  0  0  0  0  0
    9.9642    8.1621   -7.9127 C   0  0  0  0  0  0  0  0  0  0  0  0
    8.7746    7.3012   -7.7229 C   0  0  0  0  0  0  0  0  0  0  0  0
    7.4898    7.7473   -8.3106 C   0  0  0  0  0  0  0  0  0  0  0  0
    6.3895    6.7016   -8.0169 C   0  0  0  0  0  0  0  0  0  0  0  0
    5.0796    7.1307   -8.5598 C   0  0  0  0  0  0  0  0  0  0  0  0
    4.0569    5.9922   -8.4567 C   0  0  0  0  0  0  0  0  0  0  0  0
    4.5372    4.9216   -9.1879 F   0  0  0  0  0  0  0  0  0  0  0  0
    2.8634    6.4622   -8.9778 F   0  0  0  0  0  0  0  0  0  0  0  0
    3.8469    5.6332   -7.1415 F   0  0  0  0  0  0  0  0  0  0  0  0
    5.1121    7.4549   -9.8996 F   0  0  0  0  0  0  0  0  0  0  0  0
    4.5628    8.1968   -7.8626 F   0  0  0  0  0  0  0  0  0  0  0  0
    6.3021    6.6258   -6.6498 F   0  0  0  0  0  0  0  0  0  0  0  0
    6.7474    5.4683   -8.5089 F   0  0  0  0  0  0  0  0  0  0  0  0
    7.5141    7.7806   -9.7028 F   0  0  0  0  0  0  0  0  0  0  0  0
    7.0108    8.9431   -7.8733 F   0  0  0  0  0  0  0  0  0  0  0  0
    8.9978    5.9828   -8.1155 F   0  0  0  0  0  0  0  0  0  0  0  0
    8.5723    7.2002   -6.3338 F   0  0  0  0  0  0  0  0  0  0  0  0
    9.7259    9.4426   -7.3817 F   0  0  0  0  0  0  0  0  0  0  0  0
   10.1970    8.4404   -9.2693 F   0  0  0  0  0  0  0  0  0  0  0  0
   11.1619    7.4294   -5.9743 F   0  0  0  0  0  0  0  0  0  0  0  0
   11.7680    6.6223   -8.0141 F   0  0  0  0  0  0  0  0  0  0  0  0
   12.5240    9.6504   -6.4062 O   0  0  0  0  0  0  0  0  0  0  0  0
  1  2  2  0
  1  3  1  0
  3  4  1  0
  4  5  1  0
  5  6  1  0
  6  7  1  0
  7  8  1  0
  8  9  1  0
  9 10  1  0
  9 11  1  0
  9 12  1  0
  8 13  1  0
  8 14  1  0
  7 15  1  0
  7 16  1  0
  6 17  1  0
  6 18  1  0
  5 19  1  0
  5 20  1  0
  4 21  1  0
  4 22  1  0
  3 23  1  0
  3 24  1  0
  1 25  1  0
M  END
$$$$
