
     RDKit          3D

  5  4  0  0  0  0  0  0  0  0999 V2000
    6.9308   -3.2253   -6.5759 C   0  0  0  0  0  0  0  0  0  0  0  0
    5.5912   -3.7869   -6.7720 C   0  0  0  0  0  0  0  0  0  0  0  0
    4.8811   -4.1486   -5.8275 O   0  0  0  0  0  0  0  0  0  0  0  0
    5.1103   -3.9116   -8.0629 O   0  0  0  0  0  0  0  0  0  0  0  0
    7.0505   -2.9492   -5.2042 F   0  0  0  0  0  0  0  0  0  0  0  0
  1  2  1  0
  2  3  2  0
  2  4  1  0
  1  5  1  0
M  END
$$$$
