
     RDKit          3D

  5  4  0  0  0  0  0  0  0  0999 V2000
    7.0466  -17.0167   -5.1650 C   0  0  0  0  0  0  0  0  0  0  0  0
    6.5059  -17.5444   -6.4209 C   0  0  0  0  0  0  0  0  0  0  0  0
    7.2131  -18.1188   -7.2558 O   0  0  0  0  0  0  0  0  0  0  0  0
    5.1543  -17.3926   -6.6730 O   0  0  0  0  0  0  0  0  0  0  0  0
    5.9618  -16.4654   -4.4642 F   0  0  0  0  0  0  0  0  0  0  0  0
  1  2  1  0
  2  3  2  0
  2  4  1  0
  1  5  1  0
M  END
$$$$
