
     RDKit          3D

  5  4  0  0  0  0  0  0  0  0999 V2000
   12.6742    7.7974   -8.5125 C   0  0  0  0  0  0  0  0  0  0  0  0
   14.0395    7.4245   -8.1315 C   0  0  0  0  0  0  0  0  0  0  0  0
   14.4800    6.2803   -8.2862 O   0  0  0  0  0  0  0  0  0  0  0  0
   14.8595    8.3936   -7.5820 O   0  0  0  0  0  0  0  0  0  0  0  0
   12.1087    6.6678   -9.1259 F   0  0  0  0  0  0  0  0  0  0  0  0
  1  2  1  0
  2  3  2  0
  2  4  1  0
  1  5  1  0
M  END
$$$$
