
     RDKit          3D

 25 24  0  0  0  0  0  0  0  0999 V2000
   -1.9790    4.0851  -12.2457 C   0  0  0  0  0  0  0  0  0  0  0  0
   -3.1217    4.3445  -12.7387 O   0  0  0  0  0  0  0  0  0  0  0  0
   -1.6875    4.1168  -10.8166 C   0  0  0  0  0  0  0  0  0  0  0  0
   -2.4908    3.0791  -10.0109 C   0  0  0  0  0  0  0  0  0  0  0  0
   -2.1675    3.2127   -8.5704 C   0  0  0  0  0  0  0  0  0  0  0  0
   -2.9464    2.4299   -7.5737 C   0  0  0  0  0  0  0  0  0  0  0  0
   -2.5787    2.4889   -6.1576 C   0  0  0  0  0  0  0  0  0  0  0  0
   -3.3436    1.6713   -5.1766 C   0  0  0  0  0  0  0  0  0  0  0  0
   -2.8029    1.4837   -3.8146 C   0  0  0  0  0  0  0  0  0  0  0  0
   -3.4359    2.4902   -3.0323 F   0  0  0  0  0  0  0  0  0  0  0  0
   -1.4602    1.6423   -3.7149 F   0  0  0  0  0  0  0  0  0  0  0  0
   -3.2438    0.3192   -3.1722 F   0  0  0  0  0  0  0  0  0  0  0  0
   -3.6926    0.4497   -5.7356 F   0  0  0  0  0  0  0  0  0  0  0  0
   -4.5746    2.3386   -5.0208 F   0  0  0  0  0  0  0  0  0  0  0  0
   -2.6664    3.8060   -5.6771 F   0  0  0  0  0  0  0  0  0  0  0  0
   -1.2241    2.1640   -5.9360 F   0  0  0  0  0  0  0  0  0  0  0  0
   -2.9814    1.0829   -7.9515 F   0  0  0  0  0  0  0  0  0  0  0  0
   -4.2823    2.8475   -7.6751 F   0  0  0  0  0  0  0  0  0  0  0  0
   -2.2914    4.5612   -8.1763 F   0  0  0  0  0  0  0  0  0  0  0  0
   -0.8014    2.9322   -8.4523 F   0  0  0  0  0  0  0  0  0  0  0  0
   -3.8227    3.3577  -10.2213 F   0  0  0  0  0  0  0  0  0  0  0  0
   -2.2252    1.8423  -10.5655 F   0  0  0  0  0  0  0  0  0  0  0  0
   -0.3485    3.8737  -10.5953 F   0  0  0  0  0  0  0  0  0  0  0  0
   -1.9668    5.3650  -10.3157 F   0  0  0  0  0  0  0  0  0  0  0  0
   -0.9670    3.7558  -13.1352 O   0  0  0  0  0  0  0  0  0  0  0  0
  1  2  2  0
  1  3  1  0
  3  4  1  0
  4  5  1  0
  5  6  1  0
  6  7  1  0
  7  8  1  0
  8  9  1  0
  9 10  1  0
  9 11  1  0
  9 12  1  0
  8 13  1  0
  8 14  1  0
  7 15  1  0
  7 16  1  0
  6 17  1  0
  6 18  1  0
  5 19  1  0
  5 20  1  0
  4 21  1  0
  4 22  1  0
  3 23  1  0
  3 24  1  0
  1 25  1  0
M  END
$$$$
