
     RDKit          3D

 25 24  0  0  0  0  0  0  0  0999 V2000
   -2.8580    4.1057  -11.3837 C   0  0  0  0  0  0  0  0  0  0  0  0
   -2.1280    3.1646  -11.8283 O   0  0  0  0  0  0  0  0  0  0  0  0
   -3.3021    4.2002   -9.9974 C   0  0  0  0  0  0  0  0  0  0  0  0
   -2.8301    3.0201   -9.1279 C   0  0  0  0  0  0  0  0  0  0  0  0
   -3.2364    3.2485   -7.7207 C   0  0  0  0  0  0  0  0  0  0  0  0
   -2.7873    2.2966   -6.6694 C   0  0  0  0  0  0  0  0  0  0  0  0
   -3.1656    2.5261   -5.2737 C   0  0  0  0  0  0  0  0  0  0  0  0
   -2.7374    1.5470   -4.2374 C   0  0  0  0  0  0  0  0  0  0  0  0
   -3.1962    1.7222   -2.8440 C   0  0  0  0  0  0  0  0  0  0  0  0
   -3.4976    3.1088   -2.7341 F   0  0  0  0  0  0  0  0  0  0  0  0
   -2.2724    1.4069   -1.9032 F   0  0  0  0  0  0  0  0  0  0  0  0
   -4.4440    1.1474   -2.5690 F   0  0  0  0  0  0  0  0  0  0  0  0
   -1.3611    1.3715   -4.2796 F   0  0  0  0  0  0  0  0  0  0  0  0
   -3.2519    0.3075   -4.6662 F   0  0  0  0  0  0  0  0  0  0  0  0
   -4.5623    2.6016   -5.1446 F   0  0  0  0  0  0  0  0  0  0  0  0
   -2.7384    3.7828   -4.7966 F   0  0  0  0  0  0  0  0  0  0  0  0
   -1.3957    2.1579   -6.7190 F   0  0  0  0  0  0  0  0  0  0  0  0
   -3.2696    1.0286   -7.0289 F   0  0  0  0  0  0  0  0  0  0  0  0
   -4.6434    3.2806   -7.6292 F   0  0  0  0  0  0  0  0  0  0  0  0
   -2.8302    4.5504   -7.4065 F   0  0  0  0  0  0  0  0  0  0  0  0
   -3.4495    1.8927   -9.6187 F   0  0  0  0  0  0  0  0  0  0  0  0
   -1.4719    2.8811   -9.3373 F   0  0  0  0  0  0  0  0  0  0  0  0
   -2.8300    5.3603   -9.4210 F   0  0  0  0  0  0  0  0  0  0  0  0
   -4.6743    4.2487   -9.9540 F   0  0  0  0  0  0  0  0  0  0  0  0
   -3.2420    5.0873  -12.2853 O   0  0  0  0  0  0  0  0  0  0  0  0
  1  2  2  0
  1  3  1  0
  3  4  1  0
  4  5  1  0
  5  6  1  0
  6  7  1  0
  7  8  1  0
  8  9  1  0
  9 10  1  0
  9 11  1  0
  9 12  1  0
  8 13  1  0
  8 14  1  0
  7 15  1  0
  7 16  1  0
  6 17  1  0
  6 18  1  0
  5 19  1  0
  5 20  1  0
  4 21  1  0
  4 22  1  0
  3 23  1  0
  3 24  1  0
  1 25  1  0
M  END
$$$$
