
     RDKit          3D

 25 24  0  0  0  0  0  0  0  0999 V2000
   -2.3112    2.7135  -10.0326 C   0  0  0  0  0  0  0  0  0  0  0  0
   -1.1940    3.0823  -10.5145 O   0  0  0  0  0  0  0  0  0  0  0  0
   -2.8896    3.2676   -8.8133 C   0  0  0  0  0  0  0  0  0  0  0  0
   -2.6095    2.4100   -7.5654 C   0  0  0  0  0  0  0  0  0  0  0  0
   -3.2691    3.0209   -6.3867 C   0  0  0  0  0  0  0  0  0  0  0  0
   -3.1186    2.3781   -5.0536 C   0  0  0  0  0  0  0  0  0  0  0  0
   -3.7583    2.9799   -3.8819 C   0  0  0  0  0  0  0  0  0  0  0  0
   -3.5341    2.3708   -2.5423 C   0  0  0  0  0  0  0  0  0  0  0  0
   -4.2392    2.9260   -1.3687 C   0  0  0  0  0  0  0  0  0  0  0  0
   -4.6029    4.2462   -1.7565 F   0  0  0  0  0  0  0  0  0  0  0  0
   -3.4872    3.0000   -0.2431 F   0  0  0  0  0  0  0  0  0  0  0  0
   -5.4955    2.3555   -1.1251 F   0  0  0  0  0  0  0  0  0  0  0  0
   -2.1746    2.2571   -2.2860 F   0  0  0  0  0  0  0  0  0  0  0  0
   -3.9700    1.0368   -2.6661 F   0  0  0  0  0  0  0  0  0  0  0  0
   -5.1540    3.0065   -4.0381 F   0  0  0  0  0  0  0  0  0  0  0  0
   -3.4339    4.3440   -3.7289 F   0  0  0  0  0  0  0  0  0  0  0  0
   -1.7610    2.2073   -4.7603 F   0  0  0  0  0  0  0  0  0  0  0  0
   -3.6099    1.0686   -5.1700 F   0  0  0  0  0  0  0  0  0  0  0  0
   -4.6585    3.1118   -6.6108 F   0  0  0  0  0  0  0  0  0  0  0  0
   -2.8290    4.3486   -6.3412 F   0  0  0  0  0  0  0  0  0  0  0  0
   -3.1448    1.1654   -7.8108 F   0  0  0  0  0  0  0  0  0  0  0  0
   -1.2388    2.2691   -7.4705 F   0  0  0  0  0  0  0  0  0  0  0  0
   -2.3876    4.5296   -8.5755 F   0  0  0  0  0  0  0  0  0  0  0  0
   -4.2501    3.3875   -8.9603 F   0  0  0  0  0  0  0  0  0  0  0  0
   -3.0019    1.7276  -10.7214 O   0  0  0  0  0  0  0  0  0  0  0  0
  1  2  2  0
  1  3  1  0
  3  4  1  0
  4  5  1  0
  5  6  1  0
  6  7  1  0
  7  8  1  0
  8  9  1  0
  9 10  1  0
  9 11  1  0
  9 12  1  0
  8 13  1  0
  8 14  1  0
  7 15  1  0
  7 16  1  0
  6 17  1  0
  6 18  1  0
  5 19  1  0
  5 20  1  0
  4 21  1  0
  4 22  1  0
  3 23  1  0
  3 24  1  0
  1 25  1  0
M  END
$$$$
