
     RDKit          3D

 25 24  0  0  0  0  0  0  0  0999 V2000
   -3.0936    3.7362  -11.9193 C   0  0  0  0  0  0  0  0  0  0  0  0
   -4.1430    4.2047  -12.4631 O   0  0  0  0  0  0  0  0  0  0  0  0
   -3.1104    2.7789  -10.8186 C   0  0  0  0  0  0  0  0  0  0  0  0
   -3.3472    3.4367   -9.4466 C   0  0  0  0  0  0  0  0  0  0  0  0
   -3.0136    2.4726   -8.3712 C   0  0  0  0  0  0  0  0  0  0  0  0
   -3.1889    2.8772   -6.9504 C   0  0  0  0  0  0  0  0  0  0  0  0
   -2.9172    1.9125   -5.8828 C   0  0  0  0  0  0  0  0  0  0  0  0
   -3.2881    2.2584   -4.4833 C   0  0  0  0  0  0  0  0  0  0  0  0
   -3.1154    1.2483   -3.4191 C   0  0  0  0  0  0  0  0  0  0  0  0
   -1.7197    0.9700   -3.4075 F   0  0  0  0  0  0  0  0  0  0  0  0
   -3.7837    0.0879   -3.6303 F   0  0  0  0  0  0  0  0  0  0  0  0
   -3.3085    1.7372   -2.1203 F   0  0  0  0  0  0  0  0  0  0  0  0
   -4.5671    2.7963   -4.4426 F   0  0  0  0  0  0  0  0  0  0  0  0
   -2.4531    3.3390   -4.1369 F   0  0  0  0  0  0  0  0  0  0  0  0
   -1.5475    1.6057   -5.8287 F   0  0  0  0  0  0  0  0  0  0  0  0
   -3.5105    0.6560   -6.1247 F   0  0  0  0  0  0  0  0  0  0  0  0
   -4.4809    3.3785   -6.7563 F   0  0  0  0  0  0  0  0  0  0  0  0
   -2.3564    3.9857   -6.7322 F   0  0  0  0  0  0  0  0  0  0  0  0
   -1.6663    2.0726   -8.4896 F   0  0  0  0  0  0  0  0  0  0  0  0
   -3.7528    1.3161   -8.6445 F   0  0  0  0  0  0  0  0  0  0  0  0
   -2.5077    4.5258   -9.3783 F   0  0  0  0  0  0  0  0  0  0  0  0
   -4.6470    3.9042   -9.4409 F   0  0  0  0  0  0  0  0  0  0  0  0
   -4.1051    1.8438  -11.0121 F   0  0  0  0  0  0  0  0  0  0  0  0
   -1.9148    2.1040  -10.7750 F   0  0  0  0  0  0  0  0  0  0  0  0
   -1.8751    4.1738  -12.4165 O   0  0  0  0  0  0  0  0  0  0  0  0
  1  2  2  0
  1  3  1  0
  3  4  1  0
  4  5  1  0
  5  6  1  0
  6  7  1  0
  7  8  1  0
  8  9  1  0
  9 10  1  0
  9 11  1  0
  9 12  1  0
  8 13  1  0
  8 14  1  0
  7 15  1  0
  7 16  1  0
  6 17  1  0
  6 18  1  0
  5 19  1  0
  5 20  1  0
  4 21  1  0
  4 22  1  0
  3 23  1  0
  3 24  1  0
  1 25  1  0
M  END
$$$$
