
     RDKit          3D

 25 24  0  0  0  0  0  0  0  0999 V2000
    4.4885    1.1716  -12.6102 C   0  0  0  0  0  0  0  0  0  0  0  0
    5.4709    0.9657  -11.8476 O   0  0  0  0  0  0  0  0  0  0  0  0
    3.8091    2.5183  -12.6720 C   0  0  0  0  0  0  0  0  0  0  0  0
    2.7375    2.4937  -11.6419 C   0  0  0  0  0  0  0  0  0  0  0  0
    2.1686    3.7959  -11.2241 C   0  0  0  0  0  0  0  0  0  0  0  0
    0.8527    3.7949  -10.5135 C   0  0  0  0  0  0  0  0  0  0  0  0
    0.3324    5.1065  -10.0646 C   0  0  0  0  0  0  0  0  0  0  0  0
   -1.1657    5.1014   -9.8160 C   0  0  0  0  0  0  0  0  0  0  0  0
   -1.6565    6.5172   -9.5261 C   0  0  0  0  0  0  0  0  0  0  0  0
   -1.3015    7.3017  -10.6035 F   0  0  0  0  0  0  0  0  0  0  0  0
   -3.0326    6.4328   -9.4314 F   0  0  0  0  0  0  0  0  0  0  0  0
   -1.1117    6.9859   -8.3593 F   0  0  0  0  0  0  0  0  0  0  0  0
   -1.4900    4.3523   -8.7019 F   0  0  0  0  0  0  0  0  0  0  0  0
   -1.8998    4.6135  -10.8528 F   0  0  0  0  0  0  0  0  0  0  0  0
    0.9212    5.4404   -8.8424 F   0  0  0  0  0  0  0  0  0  0  0  0
    0.5850    6.1699  -10.8937 F   0  0  0  0  0  0  0  0  0  0  0  0
   -0.1190    3.0757  -11.1903 F   0  0  0  0  0  0  0  0  0  0  0  0
    1.0796    3.0162   -9.3558 F   0  0  0  0  0  0  0  0  0  0  0  0
    1.9320    4.5141  -12.4163 F   0  0  0  0  0  0  0  0  0  0  0  0
    3.1227    4.5329  -10.5363 F   0  0  0  0  0  0  0  0  0  0  0  0
    1.6542    1.8241  -12.2790 F   0  0  0  0  0  0  0  0  0  0  0  0
    3.0980    1.6536  -10.6113 F   0  0  0  0  0  0  0  0  0  0  0  0
    3.2309    2.6998  -13.9153 F   0  0  0  0  0  0  0  0  0  0  0  0
    4.7992    3.4285  -12.5195 F   0  0  0  0  0  0  0  0  0  0  0  0
    3.9824    0.1738  -13.4297 O   0  0  0  0  0  0  0  0  0  0  0  0
  1  2  2  0
  1  3  1  0
  3  4  1  0
  4  5  1  0
  5  6  1  0
  6  7  1  0
  7  8  1  0
  8  9  1  0
  9 10  1  0
  9 11  1  0
  9 12  1  0
  8 13  1  0
  8 14  1  0
  7 15  1  0
  7 16  1  0
  6 17  1  0
  6 18  1  0
  5 19  1  0
  5 20  1  0
  4 21  1  0
  4 22  1  0
  3 23  1  0
  3 24  1  0
  1 25  1  0
M  END
$$$$
