
     RDKit          3D

 25 24  0  0  0  0  0  0  0  0999 V2000
    3.9934    1.5830  -14.7288 C   0  0  0  0  0  0  0  0  0  0  0  0
    4.3465    0.8792  -13.7444 O   0  0  0  0  0  0  0  0  0  0  0  0
    2.9914    2.7019  -14.5770 C   0  0  0  0  0  0  0  0  0  0  0  0
    2.6404    2.7559  -13.1334 C   0  0  0  0  0  0  0  0  0  0  0  0
    1.6275    3.7538  -12.7187 C   0  0  0  0  0  0  0  0  0  0  0  0
    1.0646    3.6546  -11.3367 C   0  0  0  0  0  0  0  0  0  0  0  0
   -0.1064    4.5064  -11.0273 C   0  0  0  0  0  0  0  0  0  0  0  0
   -0.2718    4.7776   -9.5423 C   0  0  0  0  0  0  0  0  0  0  0  0
   -1.4110    5.7667   -9.3111 C   0  0  0  0  0  0  0  0  0  0  0  0
   -2.5848    5.0426   -9.2980 F   0  0  0  0  0  0  0  0  0  0  0  0
   -1.1839    6.3276   -8.0687 F   0  0  0  0  0  0  0  0  0  0  0  0
   -1.4210    6.7265  -10.2891 F   0  0  0  0  0  0  0  0  0  0  0  0
    0.8568    5.3678   -9.0081 F   0  0  0  0  0  0  0  0  0  0  0  0
   -0.5312    3.6671   -8.7996 F   0  0  0  0  0  0  0  0  0  0  0  0
    0.0636    5.7566  -11.6272 F   0  0  0  0  0  0  0  0  0  0  0  0
   -1.3192    4.0485  -11.4761 F   0  0  0  0  0  0  0  0  0  0  0  0
    0.8496    2.3444  -10.9407 F   0  0  0  0  0  0  0  0  0  0  0  0
    2.1211    4.0741  -10.4966 F   0  0  0  0  0  0  0  0  0  0  0  0
    0.5201    3.5572  -13.5722 F   0  0  0  0  0  0  0  0  0  0  0  0
    2.0810    5.0357  -12.9974 F   0  0  0  0  0  0  0  0  0  0  0  0
    2.0228    1.4989  -12.8756 F   0  0  0  0  0  0  0  0  0  0  0  0
    3.7880    2.7338  -12.3714 F   0  0  0  0  0  0  0  0  0  0  0  0
    1.8503    2.4170  -15.3048 F   0  0  0  0  0  0  0  0  0  0  0  0
    3.5853    3.7927  -15.1150 F   0  0  0  0  0  0  0  0  0  0  0  0
    4.5061    1.3661  -15.9990 O   0  0  0  0  0  0  0  0  0  0  0  0
  1  2  2  0
  1  3  1  0
  3  4  1  0
  4  5  1  0
  5  6  1  0
  6  7  1  0
  7  8  1  0
  8  9  1  0
  9 10  1  0
  9 11  1  0
  9 12  1  0
  8 13  1  0
  8 14  1  0
  7 15  1  0
  7 16  1  0
  6 17  1  0
  6 18  1  0
  5 19  1  0
  5 20  1  0
  4 21  1  0
  4 22  1  0
  3 23  1  0
  3 24  1  0
  1 25  1  0
M  END
$$$$
