
     RDKit          3D

 25 24  0  0  0  0  0  0  0  0999 V2000
   -1.9665    9.5762   -9.4120 C   0  0  0  0  0  0  0  0  0  0  0  0
   -2.1063    9.3219   -8.1852 O   0  0  0  0  0  0  0  0  0  0  0  0
   -1.7617    8.4760  -10.4252 C   0  0  0  0  0  0  0  0  0  0  0  0
   -1.4903    7.2376   -9.6486 C   0  0  0  0  0  0  0  0  0  0  0  0
   -1.2100    6.0030  -10.4174 C   0  0  0  0  0  0  0  0  0  0  0  0
   -0.1411    5.0863   -9.9139 C   0  0  0  0  0  0  0  0  0  0  0  0
    0.5569    4.2541  -10.9202 C   0  0  0  0  0  0  0  0  0  0  0  0
    1.5021    3.2382  -10.3031 C   0  0  0  0  0  0  0  0  0  0  0  0
    2.2396    2.4719  -11.3978 C   0  0  0  0  0  0  0  0  0  0  0  0
    1.3266    1.6241  -11.9895 F   0  0  0  0  0  0  0  0  0  0  0  0
    2.6669    3.4208  -12.3071 F   0  0  0  0  0  0  0  0  0  0  0  0
    3.3008    1.7828  -10.8716 F   0  0  0  0  0  0  0  0  0  0  0  0
    0.8155    2.2884   -9.5724 F   0  0  0  0  0  0  0  0  0  0  0  0
    2.4372    3.7795   -9.4756 F   0  0  0  0  0  0  0  0  0  0  0  0
   -0.3857    3.5126  -11.6368 F   0  0  0  0  0  0  0  0  0  0  0  0
    1.2813    4.9344  -11.8660 F   0  0  0  0  0  0  0  0  0  0  0  0
    0.7616    5.7261   -9.0799 F   0  0  0  0  0  0  0  0  0  0  0  0
   -0.8174    4.2059   -9.0389 F   0  0  0  0  0  0  0  0  0  0  0  0
   -0.7491    6.4316  -11.6812 F   0  0  0  0  0  0  0  0  0  0  0  0
   -2.3927    5.3220  -10.6710 F   0  0  0  0  0  0  0  0  0  0  0  0
   -0.2710    7.5122   -8.9662 F   0  0  0  0  0  0  0  0  0  0  0  0
   -2.4209    7.1029   -8.6418 F   0  0  0  0  0  0  0  0  0  0  0  0
   -0.6623    8.7591  -11.2152 F   0  0  0  0  0  0  0  0  0  0  0  0
   -2.8686    8.4930  -11.2040 F   0  0  0  0  0  0  0  0  0  0  0  0
   -1.9937   10.8767   -9.8927 O   0  0  0  0  0  0  0  0  0  0  0  0
  1  2  2  0
  1  3  1  0
  3  4  1  0
  4  5  1  0
  5  6  1  0
  6  7  1  0
  7  8  1  0
  8  9  1  0
  9 10  1  0
  9 11  1  0
  9 12  1  0
  8 13  1  0
  8 14  1  0
  7 15  1  0
  7 16  1  0
  6 17  1  0
  6 18  1  0
  5 19  1  0
  5 20  1  0
  4 21  1  0
  4 22  1  0
  3 23  1  0
  3 24  1  0
  1 25  1  0
M  END
$$$$
