
     RDKit          3D

 29 28  0  0  0  0  0  0  0  0999 V2000
  -10.0681    4.9821    8.3055 C   0  0  0  0  0  0  0  0  0  0  0  0
  -11.3429    5.2647    7.6039 C   0  0  0  0  0  0  0  0  0  0  0  0
  -12.4486    4.2840    7.7507 C   0  0  0  0  0  0  0  0  0  0  0  0
  -13.8425    4.7703    7.5949 C   0  0  0  0  0  0  0  0  0  0  0  0
  -14.6394    4.1827    8.7808 C   0  0  0  0  0  0  0  0  0  0  0  0
  -13.9573    4.4554    9.9374 F   0  0  0  0  0  0  0  0  0  0  0  0
  -14.7075    2.8195    8.6302 F   0  0  0  0  0  0  0  0  0  0  0  0
  -16.2778    4.8290    8.8042 S   0  0  0  0  0  0  0  0  0  0  0  0
  -16.9809    4.4438    7.5383 O   0  0  0  0  0  0  0  0  0  0  0  0
  -16.2334    6.3044    9.0055 O   0  0  0  0  0  0  0  0  0  0  0  0
  -17.0951    4.1555   10.1053 O   0  0  0  0  0  0  0  0  0  0  0  0
  -14.0188    6.1162    7.6124 F   0  0  0  0  0  0  0  0  0  0  0  0
  -14.4733    4.2794    6.4392 F   0  0  0  0  0  0  0  0  0  0  0  0
  -12.2518    3.3179    6.7414 F   0  0  0  0  0  0  0  0  0  0  0  0
  -12.2771    3.6003    8.9527 F   0  0  0  0  0  0  0  0  0  0  0  0
  -11.8276    6.4797    8.1267 F   0  0  0  0  0  0  0  0  0  0  0  0
  -11.1104    5.5722    6.2550 F   0  0  0  0  0  0  0  0  0  0  0  0
   -9.0201    6.0638    8.0574 C   0  0  0  0  0  0  0  0  0  0  0  0
   -7.8355    5.8653    8.9956 C   0  0  0  0  0  0  0  0  0  0  0  0
   -6.6616    5.2818    8.2386 C   0  0  0  0  0  0  0  0  0  0  0  0
   -6.3824    6.0925    7.1534 F   0  0  0  0  0  0  0  0  0  0  0  0
   -7.0319    4.0515    7.7522 F   0  0  0  0  0  0  0  0  0  0  0  0
   -5.5720    5.1047    9.0679 F   0  0  0  0  0  0  0  0  0  0  0  0
   -7.4151    7.0374    9.5720 F   0  0  0  0  0  0  0  0  0  0  0  0
   -8.1528    4.9288    9.9796 F   0  0  0  0  0  0  0  0  0  0  0  0
   -9.4997    7.3291    8.1928 F   0  0  0  0  0  0  0  0  0  0  0  0
   -8.5442    5.9017    6.7724 F   0  0  0  0  0  0  0  0  0  0  0  0
  -10.2922    4.8842    9.6541 F   0  0  0  0  0  0  0  0  0  0  0  0
   -9.4439    3.8121    7.8457 F   0  0  0  0  0  0  0  0  0  0  0  0
  1  2  1  0
  2  3  1  0
  3  4  1  0
  4  5  1  0
  5  6  1  0
  5  7  1  0
  5  8  1  0
  8  9  2  0
  8 10  2  0
  8 11  1  0
  4 12  1  0
  4 13  1  0
  3 14  1  0
  3 15  1  0
  2 16  1  0
  2 17  1  0
  1 18  1  0
 18 19  1  0
 19 20  1  0
 20 21  1  0
 20 22  1  0
 20 23  1  0
 19 24  1  0
 19 25  1  0
 18 26  1  0
 18 27  1  0
  1 28  1  0
  1 29  1  0
M  END
$$$$
