
     RDKit          3D

 29 28  0  0  0  0  0  0  0  0999 V2000
    3.4803   -3.6116   -9.2258 C   0  0  0  0  0  0  0  0  0  0  0  0
    2.8007   -4.9137   -9.4256 C   0  0  0  0  0  0  0  0  0  0  0  0
    3.6489   -6.1206   -9.5978 C   0  0  0  0  0  0  0  0  0  0  0  0
    2.9967   -7.3789  -10.0394 C   0  0  0  0  0  0  0  0  0  0  0  0
    4.0988   -8.4615  -10.0325 C   0  0  0  0  0  0  0  0  0  0  0  0
    4.7632   -8.3945   -8.8361 F   0  0  0  0  0  0  0  0  0  0  0  0
    4.9912   -8.1844  -11.0387 F   0  0  0  0  0  0  0  0  0  0  0  0
    3.4020  -10.0534  -10.3206 S   0  0  0  0  0  0  0  0  0  0  0  0
    2.5526  -10.0071  -11.5540 O   0  0  0  0  0  0  0  0  0  0  0  0
    2.6390  -10.4932   -9.1190 O   0  0  0  0  0  0  0  0  0  0  0  0
    4.6535  -11.1439  -10.5642 O   0  0  0  0  0  0  0  0  0  0  0  0
    1.9748   -7.8328   -9.2694 F   0  0  0  0  0  0  0  0  0  0  0  0
    2.5320   -7.3252  -11.3644 F   0  0  0  0  0  0  0  0  0  0  0  0
    4.5953   -5.7956  -10.5926 F   0  0  0  0  0  0  0  0  0  0  0  0
    4.3900   -6.3105   -8.4331 F   0  0  0  0  0  0  0  0  0  0  0  0
    2.0261   -5.1430   -8.2715 F   0  0  0  0  0  0  0  0  0  0  0  0
    1.8358   -4.8203  -10.4397 F   0  0  0  0  0  0  0  0  0  0  0  0
    2.5567   -2.5672   -8.6046 C   0  0  0  0  0  0  0  0  0  0  0  0
    3.1609   -1.1772   -8.7651 C   0  0  0  0  0  0  0  0  0  0  0  0
    2.2115   -0.1293   -8.2246 C   0  0  0  0  0  0  0  0  0  0  0  0
    2.5393    1.0967   -8.7746 F   0  0  0  0  0  0  0  0  0  0  0  0
    2.3994   -0.0378   -6.8669 F   0  0  0  0  0  0  0  0  0  0  0  0
    0.8965   -0.4831   -8.4526 F   0  0  0  0  0  0  0  0  0  0  0  0
    4.3529   -1.0386   -8.0996 F   0  0  0  0  0  0  0  0  0  0  0  0
    3.3241   -0.8768  -10.1175 F   0  0  0  0  0  0  0  0  0  0  0  0
    2.2814   -2.7941   -7.2923 F   0  0  0  0  0  0  0  0  0  0  0  0
    1.3747   -2.5741   -9.3166 F   0  0  0  0  0  0  0  0  0  0  0  0
    4.5711   -3.7773   -8.4126 F   0  0  0  0  0  0  0  0  0  0  0  0
    3.8791   -3.0171  -10.4331 F   0  0  0  0  0  0  0  0  0  0  0  0
  1  2  1  0
  2  3  1  0
  3  4  1  0
  4  5  1  0
  5  6  1  0
  5  7  1  0
  5  8  1  0
  8  9  2  0
  8 10  2  0
  8 11  1  0
  4 12  1  0
  4 13  1  0
  3 14  1  0
  3 15  1  0
  2 16  1  0
  2 17  1  0
  1 18  1  0
 18 19  1  0
 19 20  1  0
 20 21  1  0
 20 22  1  0
 20 23  1  0
 19 24  1  0
 19 25  1  0
 18 26  1  0
 18 27  1  0
  1 28  1  0
  1 29  1  0
M  END
$$$$
