
     RDKit          3D

 29 28  0  0  0  0  0  0  0  0999 V2000
    3.7389    0.3344   -2.7306 C   0  0  0  0  0  0  0  0  0  0  0  0
    2.9046   -0.7924   -3.2287 C   0  0  0  0  0  0  0  0  0  0  0  0
    2.4847   -0.7915   -4.6406 C   0  0  0  0  0  0  0  0  0  0  0  0
    1.4531   -1.7743   -5.0748 C   0  0  0  0  0  0  0  0  0  0  0  0
    0.9581   -1.7425   -6.4565 C   0  0  0  0  0  0  0  0  0  0  0  0
    0.4478   -0.5450   -6.8786 F   0  0  0  0  0  0  0  0  0  0  0  0
    1.9610   -2.0587   -7.3784 F   0  0  0  0  0  0  0  0  0  0  0  0
   -0.3562   -2.9450   -6.7115 S   0  0  0  0  0  0  0  0  0  0  0  0
    0.0947   -4.3188   -6.2660 O   0  0  0  0  0  0  0  0  0  0  0  0
   -0.7301   -3.0050   -8.1595 O   0  0  0  0  0  0  0  0  0  0  0  0
   -1.7163   -2.5019   -5.8334 O   0  0  0  0  0  0  0  0  0  0  0  0
    2.0290   -3.0504   -4.8772 F   0  0  0  0  0  0  0  0  0  0  0  0
    0.3530   -1.7810   -4.2164 F   0  0  0  0  0  0  0  0  0  0  0  0
    3.5743   -0.8517   -5.5212 F   0  0  0  0  0  0  0  0  0  0  0  0
    1.9313    0.4888   -4.8873 F   0  0  0  0  0  0  0  0  0  0  0  0
    1.7782   -0.8299   -2.3844 F   0  0  0  0  0  0  0  0  0  0  0  0
    3.5968   -1.9671   -2.9007 F   0  0  0  0  0  0  0  0  0  0  0  0
    4.2140    0.3230   -1.3311 C   0  0  0  0  0  0  0  0  0  0  0  0
    5.0871    1.5769   -1.1556 C   0  0  0  0  0  0  0  0  0  0  0  0
    5.7644    1.5742    0.1844 C   0  0  0  0  0  0  0  0  0  0  0  0
    4.8155    1.1262    1.1122 F   0  0  0  0  0  0  0  0  0  0  0  0
    5.9957    2.8953    0.5185 F   0  0  0  0  0  0  0  0  0  0  0  0
    6.9062    0.8082    0.2112 F   0  0  0  0  0  0  0  0  0  0  0  0
    4.3137    2.7162   -1.2363 F   0  0  0  0  0  0  0  0  0  0  0  0
    6.0413    1.6182   -2.1477 F   0  0  0  0  0  0  0  0  0  0  0  0
    4.9424   -0.8176   -1.0938 F   0  0  0  0  0  0  0  0  0  0  0  0
    3.1826    0.4138   -0.3802 F   0  0  0  0  0  0  0  0  0  0  0  0
    4.8536    0.3864   -3.5923 F   0  0  0  0  0  0  0  0  0  0  0  0
    3.0944    1.5575   -2.9634 F   0  0  0  0  0  0  0  0  0  0  0  0
  1  2  1  0
  2  3  1  0
  3  4  1  0
  4  5  1  0
  5  6  1  0
  5  7  1  0
  5  8  1  0
  8  9  2  0
  8 10  2  0
  8 11  1  0
  4 12  1  0
  4 13  1  0
  3 14  1  0
  3 15  1  0
  2 16  1  0
  2 17  1  0
  1 18  1  0
 18 19  1  0
 19 20  1  0
 20 21  1  0
 20 22  1  0
 20 23  1  0
 19 24  1  0
 19 25  1  0
 18 26  1  0
 18 27  1  0
  1 28  1  0
  1 29  1  0
M  END
$$$$
