
     RDKit          3D

 29 28  0  0  0  0  0  0  0  0999 V2000
    0.9028   -2.9436   -5.8533 C   0  0  0  0  0  0  0  0  0  0  0  0
    0.9965   -2.3522   -7.2153 C   0  0  0  0  0  0  0  0  0  0  0  0
   -0.2346   -1.8659   -7.8618 C   0  0  0  0  0  0  0  0  0  0  0  0
   -0.2184   -1.6304   -9.3324 C   0  0  0  0  0  0  0  0  0  0  0  0
   -1.4218   -1.1152   -9.9970 C   0  0  0  0  0  0  0  0  0  0  0  0
   -2.5009   -1.9567  -10.0104 F   0  0  0  0  0  0  0  0  0  0  0  0
   -1.8835    0.0632   -9.4020 F   0  0  0  0  0  0  0  0  0  0  0  0
   -1.0997   -0.7146  -11.7215 S   0  0  0  0  0  0  0  0  0  0  0  0
   -0.4645   -1.8939  -12.4252 O   0  0  0  0  0  0  0  0  0  0  0  0
   -0.1767    0.4597  -11.8172 O   0  0  0  0  0  0  0  0  0  0  0  0
   -2.5358   -0.3213  -12.4962 O   0  0  0  0  0  0  0  0  0  0  0  0
    0.8091   -0.6864   -9.5604 F   0  0  0  0  0  0  0  0  0  0  0  0
    0.2183   -2.7568  -10.0308 F   0  0  0  0  0  0  0  0  0  0  0  0
   -0.7619   -0.7349   -7.2223 F   0  0  0  0  0  0  0  0  0  0  0  0
   -1.2178   -2.8605   -7.6373 F   0  0  0  0  0  0  0  0  0  0  0  0
    1.6105   -3.3370   -8.0129 F   0  0  0  0  0  0  0  0  0  0  0  0
    1.9677   -1.3433   -7.1384 F   0  0  0  0  0  0  0  0  0  0  0  0
    2.0466   -3.7080   -5.3131 C   0  0  0  0  0  0  0  0  0  0  0  0
    1.4513   -4.8851   -4.5222 C   0  0  0  0  0  0  0  0  0  0  0  0
    2.3980   -6.0504   -4.5033 C   0  0  0  0  0  0  0  0  0  0  0  0
    1.6745   -7.1467   -4.0170 F   0  0  0  0  0  0  0  0  0  0  0  0
    3.3415   -5.7836   -3.5292 F   0  0  0  0  0  0  0  0  0  0  0  0
    2.9574   -6.3120   -5.7320 F   0  0  0  0  0  0  0  0  0  0  0  0
    0.2730   -5.3068   -5.1024 F   0  0  0  0  0  0  0  0  0  0  0  0
    1.1913   -4.4889   -3.2293 F   0  0  0  0  0  0  0  0  0  0  0  0
    2.8033   -2.9027   -4.4964 F   0  0  0  0  0  0  0  0  0  0  0  0
    2.8755   -4.2652   -6.3022 F   0  0  0  0  0  0  0  0  0  0  0  0
    0.6269   -1.8620   -4.9919 F   0  0  0  0  0  0  0  0  0  0  0  0
   -0.2453   -3.7412   -5.7468 F   0  0  0  0  0  0  0  0  0  0  0  0
  1  2  1  0
  2  3  1  0
  3  4  1  0
  4  5  1  0
  5  6  1  0
  5  7  1  0
  5  8  1  0
  8  9  2  0
  8 10  2  0
  8 11  1  0
  4 12  1  0
  4 13  1  0
  3 14  1  0
  3 15  1  0
  2 16  1  0
  2 17  1  0
  1 18  1  0
 18 19  1  0
 19 20  1  0
 20 21  1  0
 20 22  1  0
 20 23  1  0
 19 24  1  0
 19 25  1  0
 18 26  1  0
 18 27  1  0
  1 28  1  0
  1 29  1  0
M  END
$$$$
