
     RDKit          3D

 29 28  0  0  0  0  0  0  0  0999 V2000
    0.9224   -3.0521   -6.3671 C   0  0  0  0  0  0  0  0  0  0  0  0
    0.8613   -2.5129   -7.7524 C   0  0  0  0  0  0  0  0  0  0  0  0
   -0.3432   -1.7761   -8.1723 C   0  0  0  0  0  0  0  0  0  0  0  0
   -0.5880   -1.5880   -9.6295 C   0  0  0  0  0  0  0  0  0  0  0  0
   -1.6685   -0.6990  -10.0738 C   0  0  0  0  0  0  0  0  0  0  0  0
   -2.9093   -0.9692   -9.5639 F   0  0  0  0  0  0  0  0  0  0  0  0
   -1.4178    0.6357   -9.7398 F   0  0  0  0  0  0  0  0  0  0  0  0
   -1.8609   -0.7418  -11.8625 S   0  0  0  0  0  0  0  0  0  0  0  0
   -1.1345   -1.9364  -12.4408 O   0  0  0  0  0  0  0  0  0  0  0  0
   -1.3034    0.5054  -12.4738 O   0  0  0  0  0  0  0  0  0  0  0  0
   -3.4882   -0.8429  -12.2613 O   0  0  0  0  0  0  0  0  0  0  0  0
    0.6143   -1.0643  -10.1580 F   0  0  0  0  0  0  0  0  0  0  0  0
   -0.7261   -2.8086  -10.2914 F   0  0  0  0  0  0  0  0  0  0  0  0
   -0.4648   -0.5388   -7.5237 F   0  0  0  0  0  0  0  0  0  0  0  0
   -1.4485   -2.5149   -7.6837 F   0  0  0  0  0  0  0  0  0  0  0  0
    1.0767   -3.6185   -8.5976 F   0  0  0  0  0  0  0  0  0  0  0  0
    2.0198   -1.7413   -7.9239 F   0  0  0  0  0  0  0  0  0  0  0  0
    1.6683   -4.3011   -6.1061 C   0  0  0  0  0  0  0  0  0  0  0  0
    1.7155   -4.4710   -4.5783 C   0  0  0  0  0  0  0  0  0  0  0  0
    2.3919   -5.7581   -4.2036 C   0  0  0  0  0  0  0  0  0  0  0  0
    2.4178   -6.5486   -5.3595 F   0  0  0  0  0  0  0  0  0  0  0  0
    1.5423   -6.4191   -3.3367 F   0  0  0  0  0  0  0  0  0  0  0  0
    3.6511   -5.5748   -3.6819 F   0  0  0  0  0  0  0  0  0  0  0  0
    0.4383   -4.4975   -4.0581 F   0  0  0  0  0  0  0  0  0  0  0  0
    2.4006   -3.4167   -4.0169 F   0  0  0  0  0  0  0  0  0  0  0  0
    2.9362   -4.2062   -6.6272 F   0  0  0  0  0  0  0  0  0  0  0  0
    1.0468   -5.4522   -6.6207 F   0  0  0  0  0  0  0  0  0  0  0  0
    1.4743   -2.0171   -5.5847 F   0  0  0  0  0  0  0  0  0  0  0  0
   -0.3701   -3.1975   -5.8437 F   0  0  0  0  0  0  0  0  0  0  0  0
  1  2  1  0
  2  3  1  0
  3  4  1  0
  4  5  1  0
  5  6  1  0
  5  7  1  0
  5  8  1  0
  8  9  2  0
  8 10  2  0
  8 11  1  0
  4 12  1  0
  4 13  1  0
  3 14  1  0
  3 15  1  0
  2 16  1  0
  2 17  1  0
  1 18  1  0
 18 19  1  0
 19 20  1  0
 20 21  1  0
 20 22  1  0
 20 23  1  0
 19 24  1  0
 19 25  1  0
 18 26  1  0
 18 27  1  0
  1 28  1  0
  1 29  1  0
M  END
$$$$
