
     RDKit          3D

 29 28  0  0  0  0  0  0  0  0999 V2000
    3.4046   -0.1104   -2.5230 C   0  0  0  0  0  0  0  0  0  0  0  0
    2.7181   -0.1464   -3.8425 C   0  0  0  0  0  0  0  0  0  0  0  0
    2.3042   -1.4501   -4.3893 C   0  0  0  0  0  0  0  0  0  0  0  0
    1.4917   -1.4705   -5.6375 C   0  0  0  0  0  0  0  0  0  0  0  0
    1.1745   -2.7544   -6.2748 C   0  0  0  0  0  0  0  0  0  0  0  0
    2.2441   -3.5621   -6.5512 F   0  0  0  0  0  0  0  0  0  0  0  0
    0.3218   -3.5330   -5.4858 F   0  0  0  0  0  0  0  0  0  0  0  0
    0.3290   -2.5173   -7.8455 S   0  0  0  0  0  0  0  0  0  0  0  0
   -0.9889   -1.8057   -7.6308 O   0  0  0  0  0  0  0  0  0  0  0  0
    0.0643   -3.8388   -8.4964 O   0  0  0  0  0  0  0  0  0  0  0  0
    1.2850   -1.6026   -8.8783 O   0  0  0  0  0  0  0  0  0  0  0  0
    0.2582   -0.8648   -5.3045 F   0  0  0  0  0  0  0  0  0  0  0  0
    2.0170   -0.6180   -6.6093 F   0  0  0  0  0  0  0  0  0  0  0  0
    1.6854   -2.2602   -3.4264 F   0  0  0  0  0  0  0  0  0  0  0  0
    3.4986   -2.1493   -4.6905 F   0  0  0  0  0  0  0  0  0  0  0  0
    3.5879    0.5047   -4.7383 F   0  0  0  0  0  0  0  0  0  0  0  0
    1.6324    0.7357   -3.7435 F   0  0  0  0  0  0  0  0  0  0  0  0
    4.3919    0.9543   -2.2468 C   0  0  0  0  0  0  0  0  0  0  0  0
    4.8929    0.7241   -0.8111 C   0  0  0  0  0  0  0  0  0  0  0  0
    5.8938    1.7723   -0.4190 C   0  0  0  0  0  0  0  0  0  0  0  0
    6.1509    1.5905    0.9458 F   0  0  0  0  0  0  0  0  0  0  0  0
    5.2493    2.9921   -0.5025 F   0  0  0  0  0  0  0  0  0  0  0  0
    7.0470    1.7248   -1.1667 F   0  0  0  0  0  0  0  0  0  0  0  0
    5.5072   -0.5067   -0.7081 F   0  0  0  0  0  0  0  0  0  0  0  0
    3.8285    0.7621    0.0616 F   0  0  0  0  0  0  0  0  0  0  0  0
    3.7960    2.1867   -2.3653 F   0  0  0  0  0  0  0  0  0  0  0  0
    5.5230    0.9105   -3.0803 F   0  0  0  0  0  0  0  0  0  0  0  0
    2.3733   -0.0385   -1.5644 F   0  0  0  0  0  0  0  0  0  0  0  0
    4.0086   -1.3468   -2.2544 F   0  0  0  0  0  0  0  0  0  0  0  0
  1  2  1  0
  2  3  1  0
  3  4  1  0
  4  5  1  0
  5  6  1  0
  5  7  1  0
  5  8  1  0
  8  9  2  0
  8 10  2  0
  8 11  1  0
  4 12  1  0
  4 13  1  0
  3 14  1  0
  3 15  1  0
  2 16  1  0
  2 17  1  0
  1 18  1  0
 18 19  1  0
 19 20  1  0
 20 21  1  0
 20 22  1  0
 20 23  1  0
 19 24  1  0
 19 25  1  0
 18 26  1  0
 18 27  1  0
  1 28  1  0
  1 29  1  0
M  END
$$$$
