
     RDKit          3D

 29 28  0  0  0  0  0  0  0  0999 V2000
    3.2045   -0.3807   -3.1562 C   0  0  0  0  0  0  0  0  0  0  0  0
    3.0613   -0.7731   -4.5842 C   0  0  0  0  0  0  0  0  0  0  0  0
    1.7523   -1.2550   -5.0577 C   0  0  0  0  0  0  0  0  0  0  0  0
    1.6312   -1.7057   -6.4721 C   0  0  0  0  0  0  0  0  0  0  0  0
    0.3074   -1.7609   -7.1043 C   0  0  0  0  0  0  0  0  0  0  0  0
   -0.4391   -2.8736   -6.8264 F   0  0  0  0  0  0  0  0  0  0  0  0
   -0.4956   -0.6784   -6.7309 F   0  0  0  0  0  0  0  0  0  0  0  0
    0.4327   -1.6983   -8.8984 S   0  0  0  0  0  0  0  0  0  0  0  0
    1.0763   -0.4006   -9.3353 O   0  0  0  0  0  0  0  0  0  0  0  0
   -0.9268   -1.7958   -9.5167 O   0  0  0  0  0  0  0  0  0  0  0  0
    1.3580   -2.9842   -9.4530 O   0  0  0  0  0  0  0  0  0  0  0  0
    2.4089   -0.8022   -7.2325 F   0  0  0  0  0  0  0  0  0  0  0  0
    2.2661   -2.9308   -6.6796 F   0  0  0  0  0  0  0  0  0  0  0  0
    0.7173   -0.3524   -4.7741 F   0  0  0  0  0  0  0  0  0  0  0  0
    1.4347   -2.3823   -4.2610 F   0  0  0  0  0  0  0  0  0  0  0  0
    4.0511   -1.7494   -4.8083 F   0  0  0  0  0  0  0  0  0  0  0  0
    3.5075    0.3220   -5.3381 F   0  0  0  0  0  0  0  0  0  0  0  0
    4.4251    0.3272   -2.7164 C   0  0  0  0  0  0  0  0  0  0  0  0
    4.2477    0.6136   -1.2158 C   0  0  0  0  0  0  0  0  0  0  0  0
    5.4594    1.3005   -0.6551 C   0  0  0  0  0  0  0  0  0  0  0  0
    5.6165    2.4897   -1.3782 F   0  0  0  0  0  0  0  0  0  0  0  0
    6.5522    0.5265   -0.9970 F   0  0  0  0  0  0  0  0  0  0  0  0
    5.3712    1.5331    0.6975 F   0  0  0  0  0  0  0  0  0  0  0  0
    4.0690   -0.5638   -0.5197 F   0  0  0  0  0  0  0  0  0  0  0  0
    3.1426    1.4128   -1.0253 F   0  0  0  0  0  0  0  0  0  0  0  0
    4.5683    1.4963   -3.4240 F   0  0  0  0  0  0  0  0  0  0  0  0
    5.6005   -0.4330   -2.8454 F   0  0  0  0  0  0  0  0  0  0  0  0
    2.0815    0.4234   -2.8728 F   0  0  0  0  0  0  0  0  0  0  0  0
    3.0215   -1.4944   -2.3244 F   0  0  0  0  0  0  0  0  0  0  0  0
  1  2  1  0
  2  3  1  0
  3  4  1  0
  4  5  1  0
  5  6  1  0
  5  7  1  0
  5  8  1  0
  8  9  2  0
  8 10  2  0
  8 11  1  0
  4 12  1  0
  4 13  1  0
  3 14  1  0
  3 15  1  0
  2 16  1  0
  2 17  1  0
  1 18  1  0
 18 19  1  0
 19 20  1  0
 20 21  1  0
 20 22  1  0
 20 23  1  0
 19 24  1  0
 19 25  1  0
 18 26  1  0
 18 27  1  0
  1 28  1  0
  1 29  1  0
M  END
$$$$
