
     RDKit          3D

 25 27  0  0  0  0  0  0  0  0999 V2000
   22.7371  -70.4361   35.7803 C   0  0  0  0  0  0  0  0  0  0  0  0
   23.6415  -69.9475   34.7032 C   0  0  0  0  0  0  0  0  0  0  0  0
   23.9791  -68.4771   34.7861 C   0  0  0  0  0  0  0  0  0  0  0  0
   25.1540  -68.3514   35.6177 N   0  0  0  0  0  0  0  0  0  0  0  0
   26.1953  -69.1052   34.9012 C   0  0  0  0  0  0  0  0  0  0  0  0
   25.3128  -70.7022   34.8274 S   0  0  0  0  0  0  0  0  0  0  0  0
   27.1600  -68.9553   36.0354 C   0  0  0  0  0  0  0  0  0  0  0  0
   26.1553  -68.0707   36.6180 C   0  0  0  0  0  0  0  0  0  0  0  0
   26.0878  -67.3027   37.6209 O   0  0  0  0  0  0  0  0  0  0  0  0
   28.3659  -68.3266   35.5032 N   0  0  0  0  0  0  0  0  0  0  0  0
   29.6377  -68.4608   36.0956 C   0  0  0  0  0  0  0  0  0  0  0  0
   29.7469  -69.3137   37.0375 O   0  0  0  0  0  0  0  0  0  0  0  0
   30.8270  -67.6754   35.6848 C   0  0  0  0  0  0  0  0  0  0  0  0
   31.1743  -67.8327   34.2696 C   0  0  0  0  0  0  0  0  0  0  0  0
   30.3305  -67.4520   33.2395 C   0  0  0  0  0  0  0  0  0  0  0  0
   30.6827  -67.6115   31.9104 C   0  0  0  0  0  0  0  0  0  0  0  0
   31.9006  -68.1617   31.5693 C   0  0  0  0  0  0  0  0  0  0  0  0
   32.7598  -68.5493   32.5768 C   0  0  0  0  0  0  0  0  0  0  0  0
   32.3957  -68.3845   33.8938 C   0  0  0  0  0  0  0  0  0  0  0  0
   32.3118  -68.3478   30.2559 O   0  0  0  0  0  0  0  0  0  0  0  0
   31.9560  -68.0031   36.5472 N   0  0  0  0  0  0  0  0  0  0  0  0
   22.8694  -67.7121   35.4129 C   0  0  0  0  0  0  0  0  0  0  0  0
   21.9336  -68.2874   36.0538 O   0  0  0  0  0  0  0  0  0  0  0  0
   22.7903  -66.3272   35.3352 O   0  0  0  0  0  0  0  0  0  0  0  0
   23.1298  -70.3378   33.3318 C   0  0  0  0  0  0  0  0  0  0  0  0
  1  2  1  0
  2  3  1  0
  3  4  1  0
  4  5  1  0
  5  6  1  0
  5  7  1  0
  7  8  1  0
  8  9  2  0
  7 10  1  0
 10 11  1  0
 11 12  2  0
 11 13  1  0
 13 14  1  0
 14 15  1  0
 15 16  2  0
 16 17  1  0
 17 18  2  0
 18 19  1  0
 17 20  1  0
 13 21  1  0
  3 22  1  0
 22 23  2  0
 22 24  1  0
  2 25  1  0
  6  2  1  0
  8  4  1  0
 19 14  2  0
M  END
$$$$
