
     RDKit          3D

 25 27  0  0  0  0  0  0  0  0999 V2000
   -3.1150  -29.2273   -3.0579 C   0  0  0  0  0  0  0  0  0  0  0  0
   -2.5682  -28.0170   -2.3849 C   0  0  0  0  0  0  0  0  0  0  0  0
   -1.1364  -27.6929   -2.7425 C   0  0  0  0  0  0  0  0  0  0  0  0
   -1.1663  -26.8418   -3.9098 N   0  0  0  0  0  0  0  0  0  0  0  0
   -1.8988  -25.6424   -3.4729 C   0  0  0  0  0  0  0  0  0  0  0  0
   -3.4261  -26.4883   -2.9378 S   0  0  0  0  0  0  0  0  0  0  0  0
   -1.9245  -25.0863   -4.8620 C   0  0  0  0  0  0  0  0  0  0  0  0
   -1.0502  -26.2057   -5.1996 C   0  0  0  0  0  0  0  0  0  0  0  0
   -0.3895  -26.5731   -6.2139 O   0  0  0  0  0  0  0  0  0  0  0  0
   -1.3132  -23.7608   -4.8135 N   0  0  0  0  0  0  0  0  0  0  0  0
   -2.0517  -22.5623   -4.8792 C   0  0  0  0  0  0  0  0  0  0  0  0
   -3.3225  -22.6669   -4.8531 O   0  0  0  0  0  0  0  0  0  0  0  0
   -1.4352  -21.2166   -4.9751 C   0  0  0  0  0  0  0  0  0  0  0  0
   -0.3562  -20.9950   -4.0083 C   0  0  0  0  0  0  0  0  0  0  0  0
    0.0015  -19.7369   -3.5529 C   0  0  0  0  0  0  0  0  0  0  0  0
    1.0250  -19.5548   -2.6390 C   0  0  0  0  0  0  0  0  0  0  0  0
    1.7275  -20.6359   -2.1490 C   0  0  0  0  0  0  0  0  0  0  0  0
    1.3910  -21.9004   -2.5866 C   0  0  0  0  0  0  0  0  0  0  0  0
    0.3708  -22.0657   -3.4957 C   0  0  0  0  0  0  0  0  0  0  0  0
    2.7635  -20.5192   -1.2316 O   0  0  0  0  0  0  0  0  0  0  0  0
   -2.4667  -20.1925   -4.8621 N   0  0  0  0  0  0  0  0  0  0  0  0
   -0.3795  -28.9283   -3.0748 C   0  0  0  0  0  0  0  0  0  0  0  0
   -0.7579  -29.7227   -3.9931 O   0  0  0  0  0  0  0  0  0  0  0  0
    0.7827  -29.2862   -2.4029 O   0  0  0  0  0  0  0  0  0  0  0  0
   -2.7820  -28.0732   -0.8862 C   0  0  0  0  0  0  0  0  0  0  0  0
  1  2  1  0
  2  3  1  0
  3  4  1  0
  4  5  1  0
  5  6  1  0
  5  7  1  0
  7  8  1  0
  8  9  2  0
  7 10  1  0
 10 11  1  0
 11 12  2  0
 11 13  1  0
 13 14  1  0
 14 15  1  0
 15 16  2  0
 16 17  1  0
 17 18  2  0
 18 19  1  0
 17 20  1  0
 13 21  1  0
  3 22  1  0
 22 23  2  0
 22 24  1  0
  2 25  1  0
  6  2  1  0
  8  4  1  0
 19 14  2  0
M  END
$$$$
