
     RDKit          3D

 25 27  0  0  0  0  0  0  0  0999 V2000
   26.5566  -70.9591   34.8207 C   0  0  0  0  0  0  0  0  0  0  0  0
   26.3433  -69.7834   35.7090 C   0  0  0  0  0  0  0  0  0  0  0  0
   26.3006  -68.4543   34.9918 C   0  0  0  0  0  0  0  0  0  0  0  0
   24.9285  -68.2173   34.6058 N   0  0  0  0  0  0  0  0  0  0  0  0
   24.1906  -68.1686   35.8782 C   0  0  0  0  0  0  0  0  0  0  0  0
   24.6802  -69.8177   36.4909 S   0  0  0  0  0  0  0  0  0  0  0  0
   22.8719  -68.1098   35.1733 C   0  0  0  0  0  0  0  0  0  0  0  0
   23.6632  -67.9831   33.9530 C   0  0  0  0  0  0  0  0  0  0  0  0
   23.4258  -67.7548   32.7316 O   0  0  0  0  0  0  0  0  0  0  0  0
   22.1798  -66.9115   35.6402 N   0  0  0  0  0  0  0  0  0  0  0  0
   20.8255  -66.6386   35.3613 C   0  0  0  0  0  0  0  0  0  0  0  0
   20.1733  -67.5398   34.7376 O   0  0  0  0  0  0  0  0  0  0  0  0
   20.1392  -65.3823   35.7498 C   0  0  0  0  0  0  0  0  0  0  0  0
   20.0485  -65.1871   37.1996 C   0  0  0  0  0  0  0  0  0  0  0  0
   20.2192  -66.2159   38.1109 C   0  0  0  0  0  0  0  0  0  0  0  0
   20.1284  -66.0048   39.4760 C   0  0  0  0  0  0  0  0  0  0  0  0
   19.8617  -64.7466   39.9742 C   0  0  0  0  0  0  0  0  0  0  0  0
   19.6874  -63.7042   39.0874 C   0  0  0  0  0  0  0  0  0  0  0  0
   19.7807  -63.9296   37.7327 C   0  0  0  0  0  0  0  0  0  0  0  0
   19.7583  -64.4705   41.3313 O   0  0  0  0  0  0  0  0  0  0  0  0
   18.8237  -65.3254   35.1240 N   0  0  0  0  0  0  0  0  0  0  0  0
   27.1403  -68.4854   33.7657 C   0  0  0  0  0  0  0  0  0  0  0  0
   27.2329  -69.5257   33.0399 O   0  0  0  0  0  0  0  0  0  0  0  0
   27.8712  -67.3823   33.3423 O   0  0  0  0  0  0  0  0  0  0  0  0
   27.3251  -69.7765   36.8628 C   0  0  0  0  0  0  0  0  0  0  0  0
  1  2  1  0
  2  3  1  0
  3  4  1  0
  4  5  1  0
  5  6  1  0
  5  7  1  0
  7  8  1  0
  8  9  2  0
  7 10  1  0
 10 11  1  0
 11 12  2  0
 11 13  1  0
 13 14  1  0
 14 15  1  0
 15 16  2  0
 16 17  1  0
 17 18  2  0
 18 19  1  0
 17 20  1  0
 13 21  1  0
  3 22  1  0
 22 23  2  0
 22 24  1  0
  2 25  1  0
  6  2  1  0
  8  4  1  0
 19 14  2  0
M  END
$$$$
