
     RDKit          3D

 25 27  0  0  0  0  0  0  0  0999 V2000
   13.4322  -16.2471   -5.9750 C   0  0  0  0  0  0  0  0  0  0  0  0
   13.5251  -16.9166   -7.3017 C   0  0  0  0  0  0  0  0  0  0  0  0
   12.6254  -16.3306   -8.3648 C   0  0  0  0  0  0  0  0  0  0  0  0
   13.3631  -15.2741   -9.0184 N   0  0  0  0  0  0  0  0  0  0  0  0
   14.5292  -15.9496   -9.6097 C   0  0  0  0  0  0  0  0  0  0  0  0
   15.1792  -16.6783   -8.0667 S   0  0  0  0  0  0  0  0  0  0  0  0
   15.1453  -14.6477  -10.0157 C   0  0  0  0  0  0  0  0  0  0  0  0
   13.8889  -14.0502   -9.5730 C   0  0  0  0  0  0  0  0  0  0  0  0
   13.3618  -12.9009   -9.6125 O   0  0  0  0  0  0  0  0  0  0  0  0
   15.3791  -14.7050  -11.4561 N   0  0  0  0  0  0  0  0  0  0  0  0
   16.4374  -15.4275  -12.0429 C   0  0  0  0  0  0  0  0  0  0  0  0
   17.2134  -16.0573  -11.2506 O   0  0  0  0  0  0  0  0  0  0  0  0
   16.6853  -15.4885  -13.5040 C   0  0  0  0  0  0  0  0  0  0  0  0
   15.4916  -15.8156  -14.2889 C   0  0  0  0  0  0  0  0  0  0  0  0
   15.3229  -15.4195  -15.6053 C   0  0  0  0  0  0  0  0  0  0  0  0
   14.1851  -15.7417  -16.3247 C   0  0  0  0  0  0  0  0  0  0  0  0
   13.1730  -16.4765  -15.7433 C   0  0  0  0  0  0  0  0  0  0  0  0
   13.3162  -16.8836  -14.4328 C   0  0  0  0  0  0  0  0  0  0  0  0
   14.4534  -16.5555  -13.7301 C   0  0  0  0  0  0  0  0  0  0  0  0
   12.0084  -16.8315  -16.4112 O   0  0  0  0  0  0  0  0  0  0  0  0
   17.7731  -16.4189  -13.7810 N   0  0  0  0  0  0  0  0  0  0  0  0
   11.3981  -15.7495   -7.7604 C   0  0  0  0  0  0  0  0  0  0  0  0
   11.3515  -15.3970   -6.5392 O   0  0  0  0  0  0  0  0  0  0  0  0
   10.2330  -15.5579   -8.4927 O   0  0  0  0  0  0  0  0  0  0  0  0
   13.3569  -18.4170   -7.1772 C   0  0  0  0  0  0  0  0  0  0  0  0
  1  2  1  0
  2  3  1  0
  3  4  1  0
  4  5  1  0
  5  6  1  0
  5  7  1  0
  7  8  1  0
  8  9  2  0
  7 10  1  0
 10 11  1  0
 11 12  2  0
 11 13  1  0
 13 14  1  0
 14 15  1  0
 15 16  2  0
 16 17  1  0
 17 18  2  0
 18 19  1  0
 17 20  1  0
 13 21  1  0
  3 22  1  0
 22 23  2  0
 22 24  1  0
  2 25  1  0
  6  2  1  0
  8  4  1  0
 19 14  2  0
M  END
$$$$
