
     RDKit          3D

 25 27  0  0  0  0  0  0  0  0999 V2000
    1.0110  -34.4153   30.0901 C   0  0  0  0  0  0  0  0  0  0  0  0
    1.1865  -35.3393   28.9358 C   0  0  0  0  0  0  0  0  0  0  0  0
    2.1414  -34.8438   27.8748 C   0  0  0  0  0  0  0  0  0  0  0  0
    3.4638  -35.2967   28.2406 N   0  0  0  0  0  0  0  0  0  0  0  0
    3.3653  -36.7651   28.2356 C   0  0  0  0  0  0  0  0  0  0  0  0
    2.0009  -36.9077   29.4409 S   0  0  0  0  0  0  0  0  0  0  0  0
    4.7423  -36.9132   28.8024 C   0  0  0  0  0  0  0  0  0  0  0  0
    4.8457  -35.4686   28.6183 C   0  0  0  0  0  0  0  0  0  0  0  0
    5.7580  -34.5987   28.7243 O   0  0  0  0  0  0  0  0  0  0  0  0
    5.5053  -37.7534   27.8833 N   0  0  0  0  0  0  0  0  0  0  0  0
    5.7554  -39.1220   28.1082 C   0  0  0  0  0  0  0  0  0  0  0  0
    5.2897  -39.6231   29.1846 O   0  0  0  0  0  0  0  0  0  0  0  0
    6.5168  -39.9867   27.1740 C   0  0  0  0  0  0  0  0  0  0  0  0
    5.9935  -39.9755   25.8050 C   0  0  0  0  0  0  0  0  0  0  0  0
    5.2678  -41.0252   25.2667 C   0  0  0  0  0  0  0  0  0  0  0  0
    4.7845  -40.9896   23.9701 C   0  0  0  0  0  0  0  0  0  0  0  0
    5.0149  -39.8928   23.1662 C   0  0  0  0  0  0  0  0  0  0  0  0
    5.7354  -38.8334   23.6785 C   0  0  0  0  0  0  0  0  0  0  0  0
    6.2095  -38.8833   24.9697 C   0  0  0  0  0  0  0  0  0  0  0  0
    4.5572  -39.7966   21.8586 O   0  0  0  0  0  0  0  0  0  0  0  0
    6.5865  -41.3432   27.7038 N   0  0  0  0  0  0  0  0  0  0  0  0
    2.1469  -33.3585   27.8173 C   0  0  0  0  0  0  0  0  0  0  0  0
    1.7719  -32.6457   28.8016 O   0  0  0  0  0  0  0  0  0  0  0  0
    2.5612  -32.6642   26.6875 O   0  0  0  0  0  0  0  0  0  0  0  0
   -0.1482  -35.7543   28.3516 C   0  0  0  0  0  0  0  0  0  0  0  0
  1  2  1  0
  2  3  1  0
  3  4  1  0
  4  5  1  0
  5  6  1  0
  5  7  1  0
  7  8  1  0
  8  9  2  0
  7 10  1  0
 10 11  1  0
 11 12  2  0
 11 13  1  0
 13 14  1  0
 14 15  1  0
 15 16  2  0
 16 17  1  0
 17 18  2  0
 18 19  1  0
 17 20  1  0
 13 21  1  0
  3 22  1  0
 22 23  2  0
 22 24  1  0
  2 25  1  0
  6  2  1  0
  8  4  1  0
 19 14  2  0
M  END
$$$$
