
     RDKit          3D

 25 24  0  0  0  0  0  0  0  0999 V2000
   -3.8336    4.0596   -9.1871 C   0  0  0  0  0  0  0  0  0  0  0  0
   -2.9551    4.7992   -8.6202 O   0  0  0  0  0  0  0  0  0  0  0  0
   -3.4487    3.2835  -10.3873 C   0  0  0  0  0  0  0  0  0  0  0  0
   -3.3481    4.0499  -11.6497 C   0  0  0  0  0  0  0  0  0  0  0  0
   -2.7300    3.4378  -12.8302 C   0  0  0  0  0  0  0  0  0  0  0  0
   -2.6005    4.2002  -14.0856 C   0  0  0  0  0  0  0  0  0  0  0  0
   -2.0820    3.5115  -15.2899 C   0  0  0  0  0  0  0  0  0  0  0  0
   -2.0495    4.4769  -16.4952 C   0  0  0  0  0  0  0  0  0  0  0  0
   -1.1711    3.8928  -17.5584 C   0  0  0  0  0  0  0  0  0  0  0  0
   -1.3219    2.5166  -17.5047 F   0  0  0  0  0  0  0  0  0  0  0  0
   -1.5493    4.4146  -18.7772 F   0  0  0  0  0  0  0  0  0  0  0  0
    0.1427    4.2320  -17.2799 F   0  0  0  0  0  0  0  0  0  0  0  0
   -1.5152    5.6908  -16.1059 F   0  0  0  0  0  0  0  0  0  0  0  0
   -3.3409    4.5739  -16.9477 F   0  0  0  0  0  0  0  0  0  0  0  0
   -2.8215    2.4413  -15.7202 F   0  0  0  0  0  0  0  0  0  0  0  0
   -0.7736    3.0814  -15.1722 F   0  0  0  0  0  0  0  0  0  0  0  0
   -3.8291    4.7803  -14.4355 F   0  0  0  0  0  0  0  0  0  0  0  0
   -1.7764    5.3400  -13.9015 F   0  0  0  0  0  0  0  0  0  0  0  0
   -3.4624    2.2360  -13.0508 F   0  0  0  0  0  0  0  0  0  0  0  0
   -1.4471    2.9343  -12.5374 F   0  0  0  0  0  0  0  0  0  0  0  0
   -4.6874    4.4477  -11.9363 F   0  0  0  0  0  0  0  0  0  0  0  0
   -2.7412    5.2708  -11.3395 F   0  0  0  0  0  0  0  0  0  0  0  0
   -4.2761    2.1783  -10.4995 F   0  0  0  0  0  0  0  0  0  0  0  0
   -2.1638    2.7154  -10.1827 F   0  0  0  0  0  0  0  0  0  0  0  0
   -5.0813    4.0611   -8.6047 O   0  0  0  0  0  0  0  0  0  0  0  0
  1  2  2  0
  1  3  1  0
  3  4  1  0
  4  5  1  0
  5  6  1  0
  6  7  1  0
  7  8  1  0
  8  9  1  0
  9 10  1  0
  9 11  1  0
  9 12  1  0
  8 13  1  0
  8 14  1  0
  7 15  1  0
  7 16  1  0
  6 17  1  0
  6 18  1  0
  5 19  1  0
  5 20  1  0
  4 21  1  0
  4 22  1  0
  3 23  1  0
  3 24  1  0
  1 25  1  0
M  END
$$$$
