
     RDKit          3D

 25 24  0  0  0  0  0  0  0  0999 V2000
   -8.8937   14.0564    5.6831 C   0  0  0  0  0  0  0  0  0  0  0  0
   -9.5079   13.0190    5.2513 O   0  0  0  0  0  0  0  0  0  0  0  0
   -9.0913   14.4710    7.0903 C   0  0  0  0  0  0  0  0  0  0  0  0
   -9.1406   13.3777    8.0870 C   0  0  0  0  0  0  0  0  0  0  0  0
   -9.3330   13.6899    9.5068 C   0  0  0  0  0  0  0  0  0  0  0  0
   -9.4578   12.6068   10.4995 C   0  0  0  0  0  0  0  0  0  0  0  0
   -9.8585   12.9486   11.8838 C   0  0  0  0  0  0  0  0  0  0  0  0
   -9.9510   11.6746   12.7521 C   0  0  0  0  0  0  0  0  0  0  0  0
  -10.3564   12.0644   14.1401 C   0  0  0  0  0  0  0  0  0  0  0  0
  -10.3669   10.9086   14.9042 F   0  0  0  0  0  0  0  0  0  0  0  0
   -9.4599   12.9983   14.6143 F   0  0  0  0  0  0  0  0  0  0  0  0
  -11.6303   12.6061   14.0914 F   0  0  0  0  0  0  0  0  0  0  0  0
   -8.7134   11.0623   12.8147 F   0  0  0  0  0  0  0  0  0  0  0  0
  -10.9169   10.8861   12.1800 F   0  0  0  0  0  0  0  0  0  0  0  0
  -11.0846   13.5470   12.0108 F   0  0  0  0  0  0  0  0  0  0  0  0
   -8.9465   13.7427   12.5534 F   0  0  0  0  0  0  0  0  0  0  0  0
  -10.3457   11.6220   10.0412 F   0  0  0  0  0  0  0  0  0  0  0  0
   -8.2435   11.8821   10.6114 F   0  0  0  0  0  0  0  0  0  0  0  0
  -10.4774   14.5373    9.5481 F   0  0  0  0  0  0  0  0  0  0  0  0
   -8.3277   14.5532    9.9854 F   0  0  0  0  0  0  0  0  0  0  0  0
  -10.1746   12.5128    7.6208 F   0  0  0  0  0  0  0  0  0  0  0  0
   -7.9974   12.5962    7.8937 F   0  0  0  0  0  0  0  0  0  0  0  0
  -10.1890   15.3121    7.1673 F   0  0  0  0  0  0  0  0  0  0  0  0
   -8.0100   15.3009    7.4878 F   0  0  0  0  0  0  0  0  0  0  0  0
   -8.0883   14.6975    4.7685 O   0  0  0  0  0  0  0  0  0  0  0  0
  1  2  2  0
  1  3  1  0
  3  4  1  0
  4  5  1  0
  5  6  1  0
  6  7  1  0
  7  8  1  0
  8  9  1  0
  9 10  1  0
  9 11  1  0
  9 12  1  0
  8 13  1  0
  8 14  1  0
  7 15  1  0
  7 16  1  0
  6 17  1  0
  6 18  1  0
  5 19  1  0
  5 20  1  0
  4 21  1  0
  4 22  1  0
  3 23  1  0
  3 24  1  0
  1 25  1  0
M  END
$$$$
