
     RDKit          3D

 25 24  0  0  0  0  0  0  0  0999 V2000
  -10.2194   12.3039   10.5922 C   0  0  0  0  0  0  0  0  0  0  0  0
  -11.3141   12.4774    9.9507 O   0  0  0  0  0  0  0  0  0  0  0  0
   -9.7431   10.9235   10.8345 C   0  0  0  0  0  0  0  0  0  0  0  0
  -10.7859    9.8732   10.8593 C   0  0  0  0  0  0  0  0  0  0  0  0
  -10.4379    8.5057   11.2581 C   0  0  0  0  0  0  0  0  0  0  0  0
  -11.4793    7.4656   11.3468 C   0  0  0  0  0  0  0  0  0  0  0  0
  -11.1201    6.1397   11.9003 C   0  0  0  0  0  0  0  0  0  0  0  0
  -12.3903    5.3087   12.1860 C   0  0  0  0  0  0  0  0  0  0  0  0
  -12.3328    4.8077   13.5962 C   0  0  0  0  0  0  0  0  0  0  0  0
  -12.0501    5.8954   14.4066 F   0  0  0  0  0  0  0  0  0  0  0  0
  -13.5430    4.2240   13.9053 F   0  0  0  0  0  0  0  0  0  0  0  0
  -11.3137    3.8745   13.6910 F   0  0  0  0  0  0  0  0  0  0  0  0
  -12.4350    4.2187   11.3372 F   0  0  0  0  0  0  0  0  0  0  0  0
  -13.4535    6.1613   12.0288 F   0  0  0  0  0  0  0  0  0  0  0  0
  -10.4434    6.1629   13.0915 F   0  0  0  0  0  0  0  0  0  0  0  0
  -10.3914    5.3471   11.0333 F   0  0  0  0  0  0  0  0  0  0  0  0
  -12.5808    7.9361   12.0775 F   0  0  0  0  0  0  0  0  0  0  0  0
  -12.0531    7.2157   10.0738 F   0  0  0  0  0  0  0  0  0  0  0  0
   -9.7645    8.6436   12.5058 F   0  0  0  0  0  0  0  0  0  0  0  0
   -9.4162    7.9761   10.4453 F   0  0  0  0  0  0  0  0  0  0  0  0
  -11.8042   10.3979   11.7091 F   0  0  0  0  0  0  0  0  0  0  0  0
  -11.4123    9.8893    9.6093 F   0  0  0  0  0  0  0  0  0  0  0  0
   -8.9454   10.9092   11.9667 F   0  0  0  0  0  0  0  0  0  0  0  0
   -8.8500   10.5496    9.7959 F   0  0  0  0  0  0  0  0  0  0  0  0
   -9.5785   13.4519   11.0014 O   0  0  0  0  0  0  0  0  0  0  0  0
  1  2  2  0
  1  3  1  0
  3  4  1  0
  4  5  1  0
  5  6  1  0
  6  7  1  0
  7  8  1  0
  8  9  1  0
  9 10  1  0
  9 11  1  0
  9 12  1  0
  8 13  1  0
  8 14  1  0
  7 15  1  0
  7 16  1  0
  6 17  1  0
  6 18  1  0
  5 19  1  0
  5 20  1  0
  4 21  1  0
  4 22  1  0
  3 23  1  0
  3 24  1  0
  1 25  1  0
M  END
$$$$
