
     RDKit          3D

 25 24  0  0  0  0  0  0  0  0999 V2000
  -19.9472    2.7876   11.9545 C   0  0  0  0  0  0  0  0  0  0  0  0
  -19.7970    3.8924   12.5846 O   0  0  0  0  0  0  0  0  0  0  0  0
  -18.8175    1.8324   11.9059 C   0  0  0  0  0  0  0  0  0  0  0  0
  -17.4664    2.4186   12.0551 C   0  0  0  0  0  0  0  0  0  0  0  0
  -16.2872    1.5470   12.0617 C   0  0  0  0  0  0  0  0  0  0  0  0
  -15.0382    1.9850   12.7115 C   0  0  0  0  0  0  0  0  0  0  0  0
  -13.8568    1.0931   12.6641 C   0  0  0  0  0  0  0  0  0  0  0  0
  -12.8171    1.5128   13.7264 C   0  0  0  0  0  0  0  0  0  0  0  0
  -12.6213    0.3790   14.6851 C   0  0  0  0  0  0  0  0  0  0  0  0
  -11.9651    0.8882   15.7940 F   0  0  0  0  0  0  0  0  0  0  0  0
  -13.8556   -0.1471   15.0021 F   0  0  0  0  0  0  0  0  0  0  0  0
  -11.8338   -0.5832   14.0747 F   0  0  0  0  0  0  0  0  0  0  0  0
  -13.2864    2.6048   14.4320 F   0  0  0  0  0  0  0  0  0  0  0  0
  -11.6521    1.7665   13.0480 F   0  0  0  0  0  0  0  0  0  0  0  0
  -13.1661    1.0936   11.4808 F   0  0  0  0  0  0  0  0  0  0  0  0
  -14.1349   -0.2254   12.9727 F   0  0  0  0  0  0  0  0  0  0  0  0
  -14.6370    3.2328   12.2110 F   0  0  0  0  0  0  0  0  0  0  0  0
  -15.2567    2.2724   14.0834 F   0  0  0  0  0  0  0  0  0  0  0  0
  -16.0520    1.2315   10.6926 F   0  0  0  0  0  0  0  0  0  0  0  0
  -16.5877    0.2776   12.5941 F   0  0  0  0  0  0  0  0  0  0  0  0
  -17.3730    3.3782   11.0041 F   0  0  0  0  0  0  0  0  0  0  0  0
  -17.4972    3.2327   13.1915 F   0  0  0  0  0  0  0  0  0  0  0  0
  -18.9347    1.0459   10.7718 F   0  0  0  0  0  0  0  0  0  0  0  0
  -18.9487    0.9011   12.9695 F   0  0  0  0  0  0  0  0  0  0  0  0
  -21.1796    2.5955   11.3712 O   0  0  0  0  0  0  0  0  0  0  0  0
  1  2  2  0
  1  3  1  0
  3  4  1  0
  4  5  1  0
  5  6  1  0
  6  7  1  0
  7  8  1  0
  8  9  1  0
  9 10  1  0
  9 11  1  0
  9 12  1  0
  8 13  1  0
  8 14  1  0
  7 15  1  0
  7 16  1  0
  6 17  1  0
  6 18  1  0
  5 19  1  0
  5 20  1  0
  4 21  1  0
  4 22  1  0
  3 23  1  0
  3 24  1  0
  1 25  1  0
M  END
$$$$
