
     RDKit          3D

 25 24  0  0  0  0  0  0  0  0999 V2000
  -12.3615   10.0769    9.6750 C   0  0  0  0  0  0  0  0  0  0  0  0
  -13.5089    9.8534    9.1519 O   0  0  0  0  0  0  0  0  0  0  0  0
  -11.6997    8.9946   10.4376 C   0  0  0  0  0  0  0  0  0  0  0  0
  -12.3618    7.6714   10.3918 C   0  0  0  0  0  0  0  0  0  0  0  0
  -11.8482    6.5675   11.2091 C   0  0  0  0  0  0  0  0  0  0  0  0
  -12.7188    5.4305   11.5606 C   0  0  0  0  0  0  0  0  0  0  0  0
  -12.2305    4.4324   12.5399 C   0  0  0  0  0  0  0  0  0  0  0  0
  -13.3801    3.9694   13.4618 C   0  0  0  0  0  0  0  0  0  0  0  0
  -12.8076    3.1354   14.5661 C   0  0  0  0  0  0  0  0  0  0  0  0
  -12.0722    3.9816   15.3802 F   0  0  0  0  0  0  0  0  0  0  0  0
  -13.8447    2.5283   15.2418 F   0  0  0  0  0  0  0  0  0  0  0  0
  -11.9747    2.1789   14.0095 F   0  0  0  0  0  0  0  0  0  0  0  0
  -14.2691    3.1918   12.7437 F   0  0  0  0  0  0  0  0  0  0  0  0
  -13.9479    5.1085   13.9735 F   0  0  0  0  0  0  0  0  0  0  0  0
  -11.2549    4.8745   13.3943 F   0  0  0  0  0  0  0  0  0  0  0  0
  -11.7704    3.2613   11.9674 F   0  0  0  0  0  0  0  0  0  0  0  0
  -13.9624    5.8894   12.0202 F   0  0  0  0  0  0  0  0  0  0  0  0
  -13.0831    4.6967   10.4026 F   0  0  0  0  0  0  0  0  0  0  0  0
  -11.3362    7.1850   12.3863 F   0  0  0  0  0  0  0  0  0  0  0  0
  -10.6785    6.0143   10.6515 F   0  0  0  0  0  0  0  0  0  0  0  0
  -13.7248    7.9402   10.7146 F   0  0  0  0  0  0  0  0  0  0  0  0
  -12.4478    7.3036    9.0456 F   0  0  0  0  0  0  0  0  0  0  0  0
  -11.4640    9.4279   11.7319 F   0  0  0  0  0  0  0  0  0  0  0  0
  -10.3958    8.7868    9.9157 F   0  0  0  0  0  0  0  0  0  0  0  0
  -11.8457   11.3367    9.4675 O   0  0  0  0  0  0  0  0  0  0  0  0
  1  2  2  0
  1  3  1  0
  3  4  1  0
  4  5  1  0
  5  6  1  0
  6  7  1  0
  7  8  1  0
  8  9  1  0
  9 10  1  0
  9 11  1  0
  9 12  1  0
  8 13  1  0
  8 14  1  0
  7 15  1  0
  7 16  1  0
  6 17  1  0
  6 18  1  0
  5 19  1  0
  5 20  1  0
  4 21  1  0
  4 22  1  0
  3 23  1  0
  3 24  1  0
  1 25  1  0
M  END
$$$$
