
     RDKit          3D

 25 24  0  0  0  0  0  0  0  0999 V2000
    5.2325   13.7390  -13.7025 C   0  0  0  0  0  0  0  0  0  0  0  0
    5.4448   13.0387  -14.7535 O   0  0  0  0  0  0  0  0  0  0  0  0
    5.4883   13.1341  -12.3760 C   0  0  0  0  0  0  0  0  0  0  0  0
    6.6685   13.6490  -11.6457 C   0  0  0  0  0  0  0  0  0  0  0  0
    6.8902   13.2632  -10.2485 C   0  0  0  0  0  0  0  0  0  0  0  0
    8.0098   13.8412   -9.4826 C   0  0  0  0  0  0  0  0  0  0  0  0
    8.3728   13.2362   -8.1805 C   0  0  0  0  0  0  0  0  0  0  0  0
    9.4731   14.0669   -7.4841 C   0  0  0  0  0  0  0  0  0  0  0  0
    9.9581   13.3157   -6.2826 C   0  0  0  0  0  0  0  0  0  0  0  0
    8.8514   13.0444   -5.4944 F   0  0  0  0  0  0  0  0  0  0  0  0
   10.5928   12.1681   -6.7080 F   0  0  0  0  0  0  0  0  0  0  0  0
   10.8435   14.1220   -5.5867 F   0  0  0  0  0  0  0  0  0  0  0  0
    8.9487   15.2740   -7.0616 F   0  0  0  0  0  0  0  0  0  0  0  0
   10.4876   14.2071   -8.3968 F   0  0  0  0  0  0  0  0  0  0  0  0
    8.8823   11.9658   -8.2434 F   0  0  0  0  0  0  0  0  0  0  0  0
    7.3397   13.2156   -7.2623 F   0  0  0  0  0  0  0  0  0  0  0  0
    9.1740   13.8729  -10.2650 F   0  0  0  0  0  0  0  0  0  0  0  0
    7.7879   15.2186   -9.2257 F   0  0  0  0  0  0  0  0  0  0  0  0
    6.9809   11.8417  -10.2665 F   0  0  0  0  0  0  0  0  0  0  0  0
    5.7328   13.4603   -9.4696 F   0  0  0  0  0  0  0  0  0  0  0  0
    7.7828   13.2708  -12.4516 F   0  0  0  0  0  0  0  0  0  0  0  0
    6.6634   15.0399  -11.7894 F   0  0  0  0  0  0  0  0  0  0  0  0
    5.4979   11.7545  -12.4987 F   0  0  0  0  0  0  0  0  0  0  0  0
    4.3769   13.3831  -11.5282 F   0  0  0  0  0  0  0  0  0  0  0  0
    4.7764   15.0199  -13.9203 O   0  0  0  0  0  0  0  0  0  0  0  0
  1  2  2  0
  1  3  1  0
  3  4  1  0
  4  5  1  0
  5  6  1  0
  6  7  1  0
  7  8  1  0
  8  9  1  0
  9 10  1  0
  9 11  1  0
  9 12  1  0
  8 13  1  0
  8 14  1  0
  7 15  1  0
  7 16  1  0
  6 17  1  0
  6 18  1  0
  5 19  1  0
  5 20  1  0
  4 21  1  0
  4 22  1  0
  3 23  1  0
  3 24  1  0
  1 25  1  0
M  END
$$$$
