
     RDKit          3D

 25 24  0  0  0  0  0  0  0  0999 V2000
   -1.8269   13.0646  -16.1385 C   0  0  0  0  0  0  0  0  0  0  0  0
   -2.8117   13.1342  -16.9542 O   0  0  0  0  0  0  0  0  0  0  0  0
   -1.7885   11.9585  -15.1558 C   0  0  0  0  0  0  0  0  0  0  0  0
   -2.8955   10.9792  -15.2389 C   0  0  0  0  0  0  0  0  0  0  0  0
   -2.9005    9.8042  -14.3617 C   0  0  0  0  0  0  0  0  0  0  0  0
   -4.0749    8.9139  -14.3122 C   0  0  0  0  0  0  0  0  0  0  0  0
   -4.0087    7.6888  -13.4827 C   0  0  0  0  0  0  0  0  0  0  0  0
   -5.3662    6.9521  -13.4938 C   0  0  0  0  0  0  0  0  0  0  0  0
   -5.2193    5.6574  -12.7555 C   0  0  0  0  0  0  0  0  0  0  0  0
   -4.9972    5.9677  -11.4235 F   0  0  0  0  0  0  0  0  0  0  0  0
   -6.3668    4.9150  -12.9366 F   0  0  0  0  0  0  0  0  0  0  0  0
   -4.1254    4.9796  -13.2680 F   0  0  0  0  0  0  0  0  0  0  0  0
   -5.7341    6.6722  -14.7964 F   0  0  0  0  0  0  0  0  0  0  0  0
   -6.2553    7.7701  -12.8439 F   0  0  0  0  0  0  0  0  0  0  0  0
   -3.7323    7.8905  -12.1560 F   0  0  0  0  0  0  0  0  0  0  0  0
   -3.1129    6.7435  -13.9462 F   0  0  0  0  0  0  0  0  0  0  0  0
   -5.2139    9.6273  -13.9094 F   0  0  0  0  0  0  0  0  0  0  0  0
   -4.4388    8.4854  -15.6146 F   0  0  0  0  0  0  0  0  0  0  0  0
   -2.6041   10.3098  -13.0632 F   0  0  0  0  0  0  0  0  0  0  0  0
   -1.7853    8.9773  -14.6017 F   0  0  0  0  0  0  0  0  0  0  0  0
   -4.0765   11.7545  -15.0427 F   0  0  0  0  0  0  0  0  0  0  0  0
   -3.0113   10.6060  -16.5814 F   0  0  0  0  0  0  0  0  0  0  0  0
   -1.6371   12.4848  -13.8835 F   0  0  0  0  0  0  0  0  0  0  0  0
   -0.5993   11.2067  -15.3465 F   0  0  0  0  0  0  0  0  0  0  0  0
   -0.8767   14.0535  -16.2637 O   0  0  0  0  0  0  0  0  0  0  0  0
  1  2  2  0
  1  3  1  0
  3  4  1  0
  4  5  1  0
  5  6  1  0
  6  7  1  0
  7  8  1  0
  8  9  1  0
  9 10  1  0
  9 11  1  0
  9 12  1  0
  8 13  1  0
  8 14  1  0
  7 15  1  0
  7 16  1  0
  6 17  1  0
  6 18  1  0
  5 19  1  0
  5 20  1  0
  4 21  1  0
  4 22  1  0
  3 23  1  0
  3 24  1  0
  1 25  1  0
M  END
$$$$
