
     RDKit          3D

 25 24  0  0  0  0  0  0  0  0999 V2000
    4.8267   14.0823  -13.6849 C   0  0  0  0  0  0  0  0  0  0  0  0
    5.0044   13.4917  -14.8072 O   0  0  0  0  0  0  0  0  0  0  0  0
    5.2525   13.4003  -12.4421 C   0  0  0  0  0  0  0  0  0  0  0  0
    6.3445   14.0538  -11.6859 C   0  0  0  0  0  0  0  0  0  0  0  0
    6.8768   13.4208  -10.4750 C   0  0  0  0  0  0  0  0  0  0  0  0
    7.8517   14.1317   -9.6275 C   0  0  0  0  0  0  0  0  0  0  0  0
    8.3604   13.4628   -8.4079 C   0  0  0  0  0  0  0  0  0  0  0  0
    9.3717   14.3701   -7.6732 C   0  0  0  0  0  0  0  0  0  0  0  0
    9.9409   13.6166   -6.5107 C   0  0  0  0  0  0  0  0  0  0  0  0
    8.8747   13.0712   -5.8139 F   0  0  0  0  0  0  0  0  0  0  0  0
   10.8020   12.6527   -6.9904 F   0  0  0  0  0  0  0  0  0  0  0  0
   10.6244   14.5078   -5.7001 F   0  0  0  0  0  0  0  0  0  0  0  0
    8.7260   15.4932   -7.1912 F   0  0  0  0  0  0  0  0  0  0  0  0
   10.3597   14.6606   -8.5793 F   0  0  0  0  0  0  0  0  0  0  0  0
    9.0341   12.2885   -8.6182 F   0  0  0  0  0  0  0  0  0  0  0  0
    7.3883   13.2101   -7.4581 F   0  0  0  0  0  0  0  0  0  0  0  0
    8.9675   14.5201  -10.3842 F   0  0  0  0  0  0  0  0  0  0  0  0
    7.3333   15.3814   -9.2010 F   0  0  0  0  0  0  0  0  0  0  0  0
    7.4125   12.1755  -10.9127 F   0  0  0  0  0  0  0  0  0  0  0  0
    5.8422   12.9953   -9.6186 F   0  0  0  0  0  0  0  0  0  0  0  0
    7.3813   14.2465  -12.6463 F   0  0  0  0  0  0  0  0  0  0  0  0
    5.9361   15.3664  -11.4302 F   0  0  0  0  0  0  0  0  0  0  0  0
    5.5196   12.0701  -12.7212 F   0  0  0  0  0  0  0  0  0  0  0  0
    4.1534   13.3360  -11.5457 F   0  0  0  0  0  0  0  0  0  0  0  0
    4.2422   15.3273  -13.7511 O   0  0  0  0  0  0  0  0  0  0  0  0
  1  2  2  0
  1  3  1  0
  3  4  1  0
  4  5  1  0
  5  6  1  0
  6  7  1  0
  7  8  1  0
  8  9  1  0
  9 10  1  0
  9 11  1  0
  9 12  1  0
  8 13  1  0
  8 14  1  0
  7 15  1  0
  7 16  1  0
  6 17  1  0
  6 18  1  0
  5 19  1  0
  5 20  1  0
  4 21  1  0
  4 22  1  0
  3 23  1  0
  3 24  1  0
  1 25  1  0
M  END
$$$$
