
     RDKit          3D

 29 28  0  0  0  0  0  0  0  0999 V2000
   -0.4434    6.2638   -9.6005 C   0  0  0  0  0  0  0  0  0  0  0  0
   -0.5605    7.6173  -10.1220 C   0  0  0  0  0  0  0  0  0  0  0  0
   -1.5498    8.6295   -9.8518 C   0  0  0  0  0  0  0  0  0  0  0  0
   -1.7690    9.8798  -10.5780 C   0  0  0  0  0  0  0  0  0  0  0  0
   -2.4172   10.9420   -9.5982 C   0  0  0  0  0  0  0  0  0  0  0  0
   -3.6894   10.5411   -9.3301 F   0  0  0  0  0  0  0  0  0  0  0  0
   -1.6210   11.0057   -8.4943 F   0  0  0  0  0  0  0  0  0  0  0  0
   -2.3206   12.4447  -10.5431 S   0  0  0  0  0  0  0  0  0  0  0  0
   -3.0297   12.2136  -11.8518 O   0  0  0  0  0  0  0  0  0  0  0  0
   -0.8690   12.6744  -10.8610 O   0  0  0  0  0  0  0  0  0  0  0  0
   -2.9890   13.7343   -9.7435 O   0  0  0  0  0  0  0  0  0  0  0  0
   -2.5873    9.8655  -11.6619 F   0  0  0  0  0  0  0  0  0  0  0  0
   -0.5627   10.5716  -10.8411 F   0  0  0  0  0  0  0  0  0  0  0  0
   -2.8627    8.0314   -9.7875 F   0  0  0  0  0  0  0  0  0  0  0  0
   -1.3876    8.9657   -8.4570 F   0  0  0  0  0  0  0  0  0  0  0  0
    0.7693    8.2212  -10.0997 F   0  0  0  0  0  0  0  0  0  0  0  0
   -0.6321    7.4241  -11.5603 F   0  0  0  0  0  0  0  0  0  0  0  0
    0.2670    5.1695  -10.2519 C   0  0  0  0  0  0  0  0  0  0  0  0
    0.0848    3.8552   -9.4789 C   0  0  0  0  0  0  0  0  0  0  0  0
    0.9053    2.7078   -9.9205 C   0  0  0  0  0  0  0  0  0  0  0  0
    0.3883    1.5337   -9.4203 F   0  0  0  0  0  0  0  0  0  0  0  0
    0.6289    2.5951  -11.3267 F   0  0  0  0  0  0  0  0  0  0  0  0
    2.2537    2.8309   -9.8859 F   0  0  0  0  0  0  0  0  0  0  0  0
    0.4478    4.1169   -8.1465 F   0  0  0  0  0  0  0  0  0  0  0  0
   -1.2762    3.5608   -9.4285 F   0  0  0  0  0  0  0  0  0  0  0  0
   -0.3093    4.8775  -11.5044 F   0  0  0  0  0  0  0  0  0  0  0  0
    1.5971    5.2447  -10.4805 F   0  0  0  0  0  0  0  0  0  0  0  0
   -0.1472    6.3532   -8.2334 F   0  0  0  0  0  0  0  0  0  0  0  0
   -1.8228    5.8186   -9.5622 F   0  0  0  0  0  0  0  0  0  0  0  0
  1  2  1  0
  2  3  1  0
  3  4  1  0
  4  5  1  0
  5  6  1  0
  5  7  1  0
  5  8  1  0
  8  9  2  0
  8 10  2  0
  8 11  1  0
  4 12  1  0
  4 13  1  0
  3 14  1  0
  3 15  1  0
  2 16  1  0
  2 17  1  0
  1 18  1  0
 18 19  1  0
 19 20  1  0
 20 21  1  0
 20 22  1  0
 20 23  1  0
 19 24  1  0
 19 25  1  0
 18 26  1  0
 18 27  1  0
  1 28  1  0
  1 29  1  0
M  END
$$$$
