
     RDKit          3D

 29 28  0  0  0  0  0  0  0  0999 V2000
    0.6084    4.2470  -10.3845 C   0  0  0  0  0  0  0  0  0  0  0  0
    0.7177    3.3642  -11.5362 C   0  0  0  0  0  0  0  0  0  0  0  0
    1.7545    3.2684  -12.5322 C   0  0  0  0  0  0  0  0  0  0  0  0
    1.6271    2.7976  -13.9109 C   0  0  0  0  0  0  0  0  0  0  0  0
    2.9758    3.0936  -14.6868 C   0  0  0  0  0  0  0  0  0  0  0  0
    3.3577    4.3653  -14.3903 F   0  0  0  0  0  0  0  0  0  0  0  0
    3.8767    2.1483  -14.2975 F   0  0  0  0  0  0  0  0  0  0  0  0
    2.5006    2.8624  -16.3841 S   0  0  0  0  0  0  0  0  0  0  0  0
    1.9949    1.4515  -16.5340 O   0  0  0  0  0  0  0  0  0  0  0  0
    3.7507    2.9745  -17.2123 O   0  0  0  0  0  0  0  0  0  0  0  0
    1.3417    3.9459  -16.8658 O   0  0  0  0  0  0  0  0  0  0  0  0
    0.6544    3.3341  -14.6922 F   0  0  0  0  0  0  0  0  0  0  0  0
    1.6564    1.3858  -14.0057 F   0  0  0  0  0  0  0  0  0  0  0  0
    2.4342    4.5361  -12.6604 F   0  0  0  0  0  0  0  0  0  0  0  0
    2.8144    2.5068  -11.9145 F   0  0  0  0  0  0  0  0  0  0  0  0
    0.3309    2.0222  -11.1086 F   0  0  0  0  0  0  0  0  0  0  0  0
   -0.4850    3.6493  -12.3003 F   0  0  0  0  0  0  0  0  0  0  0  0
   -0.6326    4.5833   -9.6967 C   0  0  0  0  0  0  0  0  0  0  0  0
   -0.6359    6.0525   -9.2501 C   0  0  0  0  0  0  0  0  0  0  0  0
   -1.9512    6.6429   -8.9244 C   0  0  0  0  0  0  0  0  0  0  0  0
   -1.8072    7.6281   -7.9732 F   0  0  0  0  0  0  0  0  0  0  0  0
   -2.3032    7.3935  -10.0987 F   0  0  0  0  0  0  0  0  0  0  0  0
   -3.0084    5.8106   -8.7688 F   0  0  0  0  0  0  0  0  0  0  0  0
    0.1341    6.1193   -8.0761 F   0  0  0  0  0  0  0  0  0  0  0  0
    0.0754    6.7978  -10.1883 F   0  0  0  0  0  0  0  0  0  0  0  0
   -1.7256    4.5244  -10.5844 F   0  0  0  0  0  0  0  0  0  0  0  0
   -1.0263    3.8969   -8.6007 F   0  0  0  0  0  0  0  0  0  0  0  0
    1.6410    3.9227   -9.4939 F   0  0  0  0  0  0  0  0  0  0  0  0
    1.0771    5.5142  -10.9110 F   0  0  0  0  0  0  0  0  0  0  0  0
  1  2  1  0
  2  3  1  0
  3  4  1  0
  4  5  1  0
  5  6  1  0
  5  7  1  0
  5  8  1  0
  8  9  2  0
  8 10  2  0
  8 11  1  0
  4 12  1  0
  4 13  1  0
  3 14  1  0
  3 15  1  0
  2 16  1  0
  2 17  1  0
  1 18  1  0
 18 19  1  0
 19 20  1  0
 20 21  1  0
 20 22  1  0
 20 23  1  0
 19 24  1  0
 19 25  1  0
 18 26  1  0
 18 27  1  0
  1 28  1  0
  1 29  1  0
M  END
$$$$
