
     RDKit          3D

 29 28  0  0  0  0  0  0  0  0999 V2000
   -0.7681    5.6928   -9.9607 C   0  0  0  0  0  0  0  0  0  0  0  0
    0.4970    4.9778  -10.0383 C   0  0  0  0  0  0  0  0  0  0  0  0
    0.9088    3.9217  -10.9280 C   0  0  0  0  0  0  0  0  0  0  0  0
    2.2558    3.3822  -11.1098 C   0  0  0  0  0  0  0  0  0  0  0  0
    2.2110    2.2305  -12.1961 C   0  0  0  0  0  0  0  0  0  0  0  0
    1.8541    1.0776  -11.5680 F   0  0  0  0  0  0  0  0  0  0  0  0
    1.3299    2.6228  -13.1587 F   0  0  0  0  0  0  0  0  0  0  0  0
    3.8762    2.2250  -12.8184 S   0  0  0  0  0  0  0  0  0  0  0  0
    4.3344    3.6560  -12.9240 O   0  0  0  0  0  0  0  0  0  0  0  0
    3.8240    1.6729  -14.2161 O   0  0  0  0  0  0  0  0  0  0  0  0
    4.9062    1.3584  -11.8503 O   0  0  0  0  0  0  0  0  0  0  0  0
    2.8809    2.8245  -10.0408 F   0  0  0  0  0  0  0  0  0  0  0  0
    3.1057    4.2726  -11.8082 F   0  0  0  0  0  0  0  0  0  0  0  0
    0.0922    2.7500  -10.7140 F   0  0  0  0  0  0  0  0  0  0  0  0
    0.4187    4.3020  -12.2318 F   0  0  0  0  0  0  0  0  0  0  0  0
    1.5725    5.9589   -9.9202 F   0  0  0  0  0  0  0  0  0  0  0  0
    0.6473    4.4047   -8.7115 F   0  0  0  0  0  0  0  0  0  0  0  0
   -1.0862    6.7378   -8.9947 C   0  0  0  0  0  0  0  0  0  0  0  0
   -1.4259    8.0582   -9.7013 C   0  0  0  0  0  0  0  0  0  0  0  0
   -1.3590    9.2853   -8.8801 C   0  0  0  0  0  0  0  0  0  0  0  0
   -1.9737   10.3291   -9.5348 F   0  0  0  0  0  0  0  0  0  0  0  0
   -2.2585    9.0302   -7.7881 F   0  0  0  0  0  0  0  0  0  0  0  0
   -0.1947    9.5754   -8.2518 F   0  0  0  0  0  0  0  0  0  0  0  0
   -0.4859    8.2167  -10.7342 F   0  0  0  0  0  0  0  0  0  0  0  0
   -2.6495    7.9064  -10.3504 F   0  0  0  0  0  0  0  0  0  0  0  0
   -2.2794    6.4351   -8.3085 F   0  0  0  0  0  0  0  0  0  0  0  0
   -0.2016    7.0872   -8.0342 F   0  0  0  0  0  0  0  0  0  0  0  0
   -1.1482    6.0381  -11.2648 F   0  0  0  0  0  0  0  0  0  0  0  0
   -1.7126    4.6339   -9.6621 F   0  0  0  0  0  0  0  0  0  0  0  0
  1  2  1  0
  2  3  1  0
  3  4  1  0
  4  5  1  0
  5  6  1  0
  5  7  1  0
  5  8  1  0
  8  9  2  0
  8 10  2  0
  8 11  1  0
  4 12  1  0
  4 13  1  0
  3 14  1  0
  3 15  1  0
  2 16  1  0
  2 17  1  0
  1 18  1  0
 18 19  1  0
 19 20  1  0
 20 21  1  0
 20 22  1  0
 20 23  1  0
 19 24  1  0
 19 25  1  0
 18 26  1  0
 18 27  1  0
  1 28  1  0
  1 29  1  0
M  END
$$$$
