
     RDKit          3D

 25 24  0  0  0  0  0  0  0  0999 V2000
   -0.9946    7.4310  -16.3831 C   0  0  0  0  0  0  0  0  0  0  0  0
   -0.5112    8.5880  -16.3285 O   0  0  0  0  0  0  0  0  0  0  0  0
   -1.0731    6.5619  -15.1246 C   0  0  0  0  0  0  0  0  0  0  0  0
    0.1056    6.9890  -14.3208 C   0  0  0  0  0  0  0  0  0  0  0  0
    0.2913    6.4294  -12.9536 C   0  0  0  0  0  0  0  0  0  0  0  0
    1.1937    7.1162  -12.0223 C   0  0  0  0  0  0  0  0  0  0  0  0
    1.1677    6.7597  -10.5756 C   0  0  0  0  0  0  0  0  0  0  0  0
    1.8084    7.7285   -9.6385 C   0  0  0  0  0  0  0  0  0  0  0  0
    1.3528    7.3554   -8.2123 C   0  0  0  0  0  0  0  0  0  0  0  0
    1.7722    6.0932   -7.8795 F   0  0  0  0  0  0  0  0  0  0  0  0
   -0.0206    7.4030   -8.1600 F   0  0  0  0  0  0  0  0  0  0  0  0
    1.8763    8.3094   -7.3652 F   0  0  0  0  0  0  0  0  0  0  0  0
    3.1929    7.6171   -9.5897 F   0  0  0  0  0  0  0  0  0  0  0  0
    1.3565    8.9851   -9.8952 F   0  0  0  0  0  0  0  0  0  0  0  0
    1.6693    5.4766  -10.3511 F   0  0  0  0  0  0  0  0  0  0  0  0
   -0.1754    6.6657  -10.1530 F   0  0  0  0  0  0  0  0  0  0  0  0
    0.8459    8.4945  -12.0846 F   0  0  0  0  0  0  0  0  0  0  0  0
    2.5110    7.0978  -12.5074 F   0  0  0  0  0  0  0  0  0  0  0  0
   -0.9925    6.2902  -12.4106 F   0  0  0  0  0  0  0  0  0  0  0  0
    0.7083    5.0997  -13.1858 F   0  0  0  0  0  0  0  0  0  0  0  0
    1.2308    6.6030  -15.0827 F   0  0  0  0  0  0  0  0  0  0  0  0
    0.2062    8.3870  -14.3176 F   0  0  0  0  0  0  0  0  0  0  0  0
   -2.3059    6.8220  -14.5376 F   0  0  0  0  0  0  0  0  0  0  0  0
   -0.9744    5.2688  -15.5443 F   0  0  0  0  0  0  0  0  0  0  0  0
   -1.4626    6.9335  -17.5950 O   0  0  0  0  0  0  0  0  0  0  0  0
  1  2  2  0
  1  3  1  0
  3  4  1  0
  4  5  1  0
  5  6  1  0
  6  7  1  0
  7  8  1  0
  8  9  1  0
  9 10  1  0
  9 11  1  0
  9 12  1  0
  8 13  1  0
  8 14  1  0
  7 15  1  0
  7 16  1  0
  6 17  1  0
  6 18  1  0
  5 19  1  0
  5 20  1  0
  4 21  1  0
  4 22  1  0
  3 23  1  0
  3 24  1  0
  1 25  1  0
M  END
$$$$
