
     RDKit          3D

 25 24  0  0  0  0  0  0  0  0999 V2000
    0.8013    7.4271   -3.4052 C   0  0  0  0  0  0  0  0  0  0  0  0
    1.7820    8.2069   -3.4806 O   0  0  0  0  0  0  0  0  0  0  0  0
    0.0809    6.9603   -4.6733 C   0  0  0  0  0  0  0  0  0  0  0  0
    1.0013    7.3578   -5.7745 C   0  0  0  0  0  0  0  0  0  0  0  0
    0.6933    6.9288   -7.1666 C   0  0  0  0  0  0  0  0  0  0  0  0
    1.2712    7.6818   -8.2856 C   0  0  0  0  0  0  0  0  0  0  0  0
    1.0748    7.1939   -9.6798 C   0  0  0  0  0  0  0  0  0  0  0  0
    1.6621    8.0296  -10.7679 C   0  0  0  0  0  0  0  0  0  0  0  0
    1.3669    7.3158  -12.1035 C   0  0  0  0  0  0  0  0  0  0  0  0
    0.2809    6.4871  -11.9855 F   0  0  0  0  0  0  0  0  0  0  0  0
    2.4665    6.5705  -12.4593 F   0  0  0  0  0  0  0  0  0  0  0  0
    1.1587    8.3023  -13.0443 F   0  0  0  0  0  0  0  0  0  0  0  0
    1.0483    9.2689  -10.9055 F   0  0  0  0  0  0  0  0  0  0  0  0
    3.0134    8.0868  -10.6262 F   0  0  0  0  0  0  0  0  0  0  0  0
   -0.2696    6.9342   -9.9513 F   0  0  0  0  0  0  0  0  0  0  0  0
    1.6863    5.9289   -9.8108 F   0  0  0  0  0  0  0  0  0  0  0  0
    2.6781    7.6811   -8.0730 F   0  0  0  0  0  0  0  0  0  0  0  0
    0.9355    9.0418   -8.1911 F   0  0  0  0  0  0  0  0  0  0  0  0
    1.0270    5.5702   -7.2398 F   0  0  0  0  0  0  0  0  0  0  0  0
   -0.7186    6.9353   -7.2183 F   0  0  0  0  0  0  0  0  0  0  0  0
    0.9978    8.7704   -5.7661 F   0  0  0  0  0  0  0  0  0  0  0  0
    2.3256    7.0554   -5.4290 F   0  0  0  0  0  0  0  0  0  0  0  0
   -0.1129    5.5904   -4.5397 F   0  0  0  0  0  0  0  0  0  0  0  0
   -1.1013    7.6377   -4.7148 F   0  0  0  0  0  0  0  0  0  0  0  0
    0.3649    6.9831   -2.1611 O   0  0  0  0  0  0  0  0  0  0  0  0
  1  2  2  0
  1  3  1  0
  3  4  1  0
  4  5  1  0
  5  6  1  0
  6  7  1  0
  7  8  1  0
  8  9  1  0
  9 10  1  0
  9 11  1  0
  9 12  1  0
  8 13  1  0
  8 14  1  0
  7 15  1  0
  7 16  1  0
  6 17  1  0
  6 18  1  0
  5 19  1  0
  5 20  1  0
  4 21  1  0
  4 22  1  0
  3 23  1  0
  3 24  1  0
  1 25  1  0
M  END
$$$$
