
     RDKit          3D

 25 24  0  0  0  0  0  0  0  0999 V2000
   36.7639  -29.1918   77.0675 C   0  0  0  0  0  0  0  0  0  0  0  0
   35.5167  -29.2511   76.9392 O   0  0  0  0  0  0  0  0  0  0  0  0
   37.6431  -28.7249   75.9038 C   0  0  0  0  0  0  0  0  0  0  0  0
   37.2196  -27.3149   75.6789 C   0  0  0  0  0  0  0  0  0  0  0  0
   38.2604  -26.2674   75.4884 C   0  0  0  0  0  0  0  0  0  0  0  0
   37.8384  -24.8919   75.2001 C   0  0  0  0  0  0  0  0  0  0  0  0
   38.7915  -23.7683   75.4231 C   0  0  0  0  0  0  0  0  0  0  0  0
   39.8166  -23.9651   76.4897 C   0  0  0  0  0  0  0  0  0  0  0  0
   39.2349  -24.9724   77.5036 C   0  0  0  0  0  0  0  0  0  0  0  0
   38.3104  -25.7894   76.9055 F   0  0  0  0  0  0  0  0  0  0  0  0
   38.6288  -24.2747   78.5220 F   0  0  0  0  0  0  0  0  0  0  0  0
   40.2999  -25.6876   78.0093 F   0  0  0  0  0  0  0  0  0  0  0  0
   40.9776  -24.5783   76.0341 F   0  0  0  0  0  0  0  0  0  0  0  0
   40.0239  -22.7949   77.1508 F   0  0  0  0  0  0  0  0  0  0  0  0
   38.1251  -22.5577   75.6200 F   0  0  0  0  0  0  0  0  0  0  0  0
   39.5249  -23.5501   74.2375 F   0  0  0  0  0  0  0  0  0  0  0  0
   36.7326  -24.6336   76.0574 F   0  0  0  0  0  0  0  0  0  0  0  0
   37.2736  -24.8075   73.9175 F   0  0  0  0  0  0  0  0  0  0  0  0
   39.0818  -26.3219   76.6219 F   0  0  0  0  0  0  0  0  0  0  0  0
   39.0736  -26.7824   74.4542 F   0  0  0  0  0  0  0  0  0  0  0  0
   36.4433  -27.3470   74.4991 F   0  0  0  0  0  0  0  0  0  0  0  0
   36.2826  -26.9323   76.6486 F   0  0  0  0  0  0  0  0  0  0  0  0
   38.9621  -28.8804   76.3141 F   0  0  0  0  0  0  0  0  0  0  0  0
   37.3424  -29.5322   74.8475 F   0  0  0  0  0  0  0  0  0  0  0  0
   37.3528  -29.5527   78.2752 O   0  0  0  0  0  0  0  0  0  0  0  0
  1  2  2  0
  1  3  1  0
  3  4  1  0
  4  5  1  0
  5  6  1  0
  6  7  1  0
  7  8  1  0
  8  9  1  0
  9 10  1  0
  9 11  1  0
  9 12  1  0
  8 13  1  0
  8 14  1  0
  7 15  1  0
  7 16  1  0
  6 17  1  0
  6 18  1  0
  5 19  1  0
  5 20  1  0
  4 21  1  0
  4 22  1  0
  3 23  1  0
  3 24  1  0
  1 25  1  0
M  END
$$$$
