
     RDKit          3D

 25 24  0  0  0  0  0  0  0  0999 V2000
   -1.1102    7.4199  -16.2499 C   0  0  0  0  0  0  0  0  0  0  0  0
   -2.1617    7.2721  -15.5807 O   0  0  0  0  0  0  0  0  0  0  0  0
    0.2055    7.7882  -15.5581 C   0  0  0  0  0  0  0  0  0  0  0  0
    0.2641    6.8686  -14.3882 C   0  0  0  0  0  0  0  0  0  0  0  0
    1.1549    7.2075  -13.2443 C   0  0  0  0  0  0  0  0  0  0  0  0
    0.8555    6.6474  -11.9215 C   0  0  0  0  0  0  0  0  0  0  0  0
    1.6759    7.0566  -10.7467 C   0  0  0  0  0  0  0  0  0  0  0  0
    1.3597    6.3920   -9.4484 C   0  0  0  0  0  0  0  0  0  0  0  0
    1.2833    7.4976   -8.3748 C   0  0  0  0  0  0  0  0  0  0  0  0
    0.8365    8.6752   -8.9166 F   0  0  0  0  0  0  0  0  0  0  0  0
    2.5391    7.6908   -7.8486 F   0  0  0  0  0  0  0  0  0  0  0  0
    0.4394    7.0352   -7.3871 F   0  0  0  0  0  0  0  0  0  0  0  0
    0.0995    5.8068   -9.4195 F   0  0  0  0  0  0  0  0  0  0  0  0
    2.3737    5.5552   -9.1004 F   0  0  0  0  0  0  0  0  0  0  0  0
    1.6868    8.4427  -10.5824 F   0  0  0  0  0  0  0  0  0  0  0  0
    3.0282    6.7461  -11.0043 F   0  0  0  0  0  0  0  0  0  0  0  0
    1.0327    5.2408  -12.0425 F   0  0  0  0  0  0  0  0  0  0  0  0
   -0.5123    6.7723  -11.6307 F   0  0  0  0  0  0  0  0  0  0  0  0
    2.4554    6.8841  -13.6525 F   0  0  0  0  0  0  0  0  0  0  0  0
    1.1485    8.6201  -13.2170 F   0  0  0  0  0  0  0  0  0  0  0  0
   -1.0558    6.8256  -13.8866 F   0  0  0  0  0  0  0  0  0  0  0  0
    0.4679    5.5509  -14.8202 F   0  0  0  0  0  0  0  0  0  0  0  0
    1.2139    7.6044  -16.4969 F   0  0  0  0  0  0  0  0  0  0  0  0
    0.0911    9.0947  -15.1864 F   0  0  0  0  0  0  0  0  0  0  0  0
   -1.1390    7.2481  -17.6301 O   0  0  0  0  0  0  0  0  0  0  0  0
  1  2  2  0
  1  3  1  0
  3  4  1  0
  4  5  1  0
  5  6  1  0
  6  7  1  0
  7  8  1  0
  8  9  1  0
  9 10  1  0
  9 11  1  0
  9 12  1  0
  8 13  1  0
  8 14  1  0
  7 15  1  0
  7 16  1  0
  6 17  1  0
  6 18  1  0
  5 19  1  0
  5 20  1  0
  4 21  1  0
  4 22  1  0
  3 23  1  0
  3 24  1  0
  1 25  1  0
M  END
$$$$
