
     RDKit          3D

 25 24  0  0  0  0  0  0  0  0999 V2000
   14.9603   -2.3391    1.6040 C   0  0  0  0  0  0  0  0  0  0  0  0
   14.4710   -3.4509    1.9201 O   0  0  0  0  0  0  0  0  0  0  0  0
   14.1178   -1.0640    1.7009 C   0  0  0  0  0  0  0  0  0  0  0  0
   14.4641   -0.5073    3.0380 C   0  0  0  0  0  0  0  0  0  0  0  0
   13.9746    0.8497    3.4067 C   0  0  0  0  0  0  0  0  0  0  0  0
   14.1553    1.3191    4.7851 C   0  0  0  0  0  0  0  0  0  0  0  0
   14.0434    2.7740    5.0873 C   0  0  0  0  0  0  0  0  0  0  0  0
   14.3517    3.1902    6.4870 C   0  0  0  0  0  0  0  0  0  0  0  0
   14.3606    4.7329    6.5144 C   0  0  0  0  0  0  0  0  0  0  0  0
   15.2746    5.2326    5.6228 F   0  0  0  0  0  0  0  0  0  0  0  0
   14.6918    5.1508    7.7820 F   0  0  0  0  0  0  0  0  0  0  0  0
   13.0780    5.1433    6.2177 F   0  0  0  0  0  0  0  0  0  0  0  0
   13.3611    2.8428    7.3978 F   0  0  0  0  0  0  0  0  0  0  0  0
   15.5989    2.7691    6.8284 F   0  0  0  0  0  0  0  0  0  0  0  0
   12.8050    3.2881    4.6991 F   0  0  0  0  0  0  0  0  0  0  0  0
   14.9596    3.4796    4.2787 F   0  0  0  0  0  0  0  0  0  0  0  0
   15.4793    0.9510    5.1538 F   0  0  0  0  0  0  0  0  0  0  0  0
   13.3594    0.5729    5.6689 F   0  0  0  0  0  0  0  0  0  0  0  0
   14.5498    1.7359    2.4867 F   0  0  0  0  0  0  0  0  0  0  0  0
   12.6084    0.8260    3.0474 F   0  0  0  0  0  0  0  0  0  0  0  0
   13.9111   -1.4141    3.9694 F   0  0  0  0  0  0  0  0  0  0  0  0
   15.8403   -0.6337    3.2714 F   0  0  0  0  0  0  0  0  0  0  0  0
   14.4804   -0.2644    0.6233 F   0  0  0  0  0  0  0  0  0  0  0  0
   12.8150   -1.4578    1.6239 F   0  0  0  0  0  0  0  0  0  0  0  0
   16.2773   -2.2635    1.1622 O   0  0  0  0  0  0  0  0  0  0  0  0
  1  2  2  0
  1  3  1  0
  3  4  1  0
  4  5  1  0
  5  6  1  0
  6  7  1  0
  7  8  1  0
  8  9  1  0
  9 10  1  0
  9 11  1  0
  9 12  1  0
  8 13  1  0
  8 14  1  0
  7 15  1  0
  7 16  1  0
  6 17  1  0
  6 18  1  0
  5 19  1  0
  5 20  1  0
  4 21  1  0
  4 22  1  0
  3 23  1  0
  3 24  1  0
  1 25  1  0
M  END
$$$$
