
     RDKit          3D

 29 28  0  0  0  0  0  0  0  0999 V2000
   17.1022   -1.1717    8.4609 C   0  0  0  0  0  0  0  0  0  0  0  0
   16.9663    0.3505    8.4005 C   0  0  0  0  0  0  0  0  0  0  0  0
   15.6870    0.7893    9.1161 C   0  0  0  0  0  0  0  0  0  0  0  0
   15.7225    2.2914    9.1621 C   0  0  0  0  0  0  0  0  0  0  0  0
   14.5252    2.9963    9.6503 C   0  0  0  0  0  0  0  0  0  0  0  0
   13.4768    2.6800    8.7575 F   0  0  0  0  0  0  0  0  0  0  0  0
   14.0904    2.5302   10.8846 F   0  0  0  0  0  0  0  0  0  0  0  0
   14.6064    4.7556    9.7085 S   0  0  0  0  0  0  0  0  0  0  0  0
   15.4932    5.1602   10.9037 O   0  0  0  0  0  0  0  0  0  0  0  0
   15.1790    5.3735    8.4788 O   0  0  0  0  0  0  0  0  0  0  0  0
   13.0899    5.4342   10.0185 O   0  0  0  0  0  0  0  0  0  0  0  0
   16.0600    2.7034    7.8614 F   0  0  0  0  0  0  0  0  0  0  0  0
   16.8638    2.6365    9.9164 F   0  0  0  0  0  0  0  0  0  0  0  0
   15.6439    0.2249   10.3829 F   0  0  0  0  0  0  0  0  0  0  0  0
   14.5629    0.3408    8.4543 F   0  0  0  0  0  0  0  0  0  0  0  0
   18.0515    0.9802    8.9699 F   0  0  0  0  0  0  0  0  0  0  0  0
   16.8768    0.8178    7.1060 F   0  0  0  0  0  0  0  0  0  0  0  0
   18.3630   -1.6420    7.8309 C   0  0  0  0  0  0  0  0  0  0  0  0
   18.6860   -3.0778    7.8913 C   0  0  0  0  0  0  0  0  0  0  0  0
   19.8725   -3.5860    7.1708 C   0  0  0  0  0  0  0  0  0  0  0  0
   21.0778   -3.0594    7.4832 F   0  0  0  0  0  0  0  0  0  0  0  0
   19.6196   -3.5437    5.7965 F   0  0  0  0  0  0  0  0  0  0  0  0
   19.9662   -4.9589    7.4522 F   0  0  0  0  0  0  0  0  0  0  0  0
   17.5786   -3.7524    7.3374 F   0  0  0  0  0  0  0  0  0  0  0  0
   18.7027   -3.5083    9.2165 F   0  0  0  0  0  0  0  0  0  0  0  0
   19.4161   -0.8686    8.2950 F   0  0  0  0  0  0  0  0  0  0  0  0
   18.2812   -1.3263    6.4609 F   0  0  0  0  0  0  0  0  0  0  0  0
   15.9952   -1.8080    8.0105 F   0  0  0  0  0  0  0  0  0  0  0  0
   17.1983   -1.4457    9.8377 F   0  0  0  0  0  0  0  0  0  0  0  0
  1  2  1  0
  2  3  1  0
  3  4  1  0
  4  5  1  0
  5  6  1  0
  5  7  1  0
  5  8  1  0
  8  9  2  0
  8 10  2  0
  8 11  1  0
  4 12  1  0
  4 13  1  0
  3 14  1  0
  3 15  1  0
  2 16  1  0
  2 17  1  0
  1 18  1  0
 18 19  1  0
 19 20  1  0
 20 21  1  0
 20 22  1  0
 20 23  1  0
 19 24  1  0
 19 25  1  0
 18 26  1  0
 18 27  1  0
  1 28  1  0
  1 29  1  0
M  END
$$$$
