
     RDKit          3D

  5  4  0  0  0  0  0  0  0  0999 V2000
   -0.2720  -18.7811   -9.2922 C   0  0  0  0  0  0  0  0  0  0  0  0
    1.0584  -18.8432   -9.9642 C   0  0  0  0  0  0  0  0  0  0  0  0
    2.1098  -18.8861   -9.3164 O   0  0  0  0  0  0  0  0  0  0  0  0
    1.0320  -18.8220  -11.3691 O   0  0  0  0  0  0  0  0  0  0  0  0
   -0.0123  -19.2651   -8.0059 F   0  0  0  0  0  0  0  0  0  0  0  0
  1  2  1  0
  2  3  2  0
  2  4  1  0
  1  5  1  0
M  END
$$$$
