
     RDKit          3D

  5  4  0  0  0  0  0  0  0  0999 V2000
    1.3993  -15.0118   -8.6318 C   0  0  0  0  0  0  0  0  0  0  0  0
    2.3289  -16.0029   -9.2474 C   0  0  0  0  0  0  0  0  0  0  0  0
    1.9099  -16.9726   -9.8885 O   0  0  0  0  0  0  0  0  0  0  0  0
    3.6974  -15.7728   -9.0255 O   0  0  0  0  0  0  0  0  0  0  0  0
    0.1319  -15.4967   -8.9710 F   0  0  0  0  0  0  0  0  0  0  0  0
  1  2  1  0
  2  3  2  0
  2  4  1  0
  1  5  1  0
M  END
$$$$
