
     RDKit          3D

  5  4  0  0  0  0  0  0  0  0999 V2000
    6.2583   -1.2156  -10.6028 C   0  0  0  0  0  0  0  0  0  0  0  0
    7.4584   -0.8319  -11.4016 C   0  0  0  0  0  0  0  0  0  0  0  0
    8.5226   -0.5146  -10.8598 O   0  0  0  0  0  0  0  0  0  0  0  0
    7.2860   -0.8308  -12.7963 O   0  0  0  0  0  0  0  0  0  0  0  0
    5.2102   -0.5479  -11.2448 F   0  0  0  0  0  0  0  0  0  0  0  0
  1  2  1  0
  2  3  2  0
  2  4  1  0
  1  5  1  0
M  END
$$$$
