
     RDKit          3D

  5  4  0  0  0  0  0  0  0  0999 V2000
   14.0183   -4.0162   -5.0099 C   0  0  0  0  0  0  0  0  0  0  0  0
   14.9965   -3.0915   -5.6528 C   0  0  0  0  0  0  0  0  0  0  0  0
   15.4773   -3.3293   -6.7660 O   0  0  0  0  0  0  0  0  0  0  0  0
   15.3486   -1.9586   -4.8995 O   0  0  0  0  0  0  0  0  0  0  0  0
   14.5227   -4.1785   -3.7154 F   0  0  0  0  0  0  0  0  0  0  0  0
  1  2  1  0
  2  3  2  0
  2  4  1  0
  1  5  1  0
M  END
$$$$
