
     RDKit          3D

  5  4  0  0  0  0  0  0  0  0999 V2000
    2.3050    0.0975   -9.9470 C   0  0  0  0  0  0  0  0  0  0  0  0
    2.9846   -0.0875  -11.2620 C   0  0  0  0  0  0  0  0  0  0  0  0
    2.7686   -1.0775  -11.9691 O   0  0  0  0  0  0  0  0  0  0  0  0
    3.8974    0.9186  -11.6219 O   0  0  0  0  0  0  0  0  0  0  0  0
    1.3617   -0.9349   -9.9175 F   0  0  0  0  0  0  0  0  0  0  0  0
  1  2  1  0
  2  3  2  0
  2  4  1  0
  1  5  1  0
M  END
$$$$
