
     RDKit          3D

 25 24  0  0  0  0  0  0  0  0999 V2000
   17.1681    2.2147    3.5547 C   0  0  0  0  0  0  0  0  0  0  0  0
   17.6462    2.7869    2.5238 O   0  0  0  0  0  0  0  0  0  0  0  0
   15.7021    2.2230    3.8036 C   0  0  0  0  0  0  0  0  0  0  0  0
   14.9933    2.9703    2.6358 C   0  0  0  0  0  0  0  0  0  0  0  0
   13.5309    3.0383    2.9387 C   0  0  0  0  0  0  0  0  0  0  0  0
   12.6861    3.9557    2.1322 C   0  0  0  0  0  0  0  0  0  0  0  0
   11.2316    3.9686    2.3621 C   0  0  0  0  0  0  0  0  0  0  0  0
   10.4058    4.9446    1.5990 C   0  0  0  0  0  0  0  0  0  0  0  0
    8.9975    5.1549    1.9592 C   0  0  0  0  0  0  0  0  0  0  0  0
    8.7127    5.4077    3.2750 F   0  0  0  0  0  0  0  0  0  0  0  0
    8.3482    6.0898    1.1660 F   0  0  0  0  0  0  0  0  0  0  0  0
    8.3351    3.9441    1.6776 F   0  0  0  0  0  0  0  0  0  0  0  0
   11.0441    6.1893    1.7751 F   0  0  0  0  0  0  0  0  0  0  0  0
   10.4703    4.7032    0.2340 F   0  0  0  0  0  0  0  0  0  0  0  0
   10.9315    4.1891    3.7085 F   0  0  0  0  0  0  0  0  0  0  0  0
   10.6466    2.7094    2.1032 F   0  0  0  0  0  0  0  0  0  0  0  0
   13.2464    5.2331    2.1180 F   0  0  0  0  0  0  0  0  0  0  0  0
   12.8720    3.5141    0.7938 F   0  0  0  0  0  0  0  0  0  0  0  0
   12.9937    1.7515    2.9550 F   0  0  0  0  0  0  0  0  0  0  0  0
   13.4494    3.4568    4.2831 F   0  0  0  0  0  0  0  0  0  0  0  0
   15.2691    2.1993    1.5013 F   0  0  0  0  0  0  0  0  0  0  0  0
   15.5929    4.1819    2.5346 F   0  0  0  0  0  0  0  0  0  0  0  0
   15.2578    0.9420    3.9191 F   0  0  0  0  0  0  0  0  0  0  0  0
   15.4619    2.9980    4.9175 F   0  0  0  0  0  0  0  0  0  0  0  0
   18.0796    1.6028    4.4023 O   0  0  0  0  0  0  0  0  0  0  0  0
  1  2  2  0
  1  3  1  0
  3  4  1  0
  4  5  1  0
  5  6  1  0
  6  7  1  0
  7  8  1  0
  8  9  1  0
  9 10  1  0
  9 11  1  0
  9 12  1  0
  8 13  1  0
  8 14  1  0
  7 15  1  0
  7 16  1  0
  6 17  1  0
  6 18  1  0
  5 19  1  0
  5 20  1  0
  4 21  1  0
  4 22  1  0
  3 23  1  0
  3 24  1  0
  1 25  1  0
M  END
$$$$
