
     RDKit          3D

 25 24  0  0  0  0  0  0  0  0999 V2000
   -4.6707   -0.2282  -14.5827 C   0  0  0  0  0  0  0  0  0  0  0  0
   -5.3833   -0.9797  -13.8437 O   0  0  0  0  0  0  0  0  0  0  0  0
   -3.4210   -0.7496  -15.1971 C   0  0  0  0  0  0  0  0  0  0  0  0
   -2.2372   -0.5204  -14.2120 C   0  0  0  0  0  0  0  0  0  0  0  0
   -0.9774   -0.9774  -14.8746 C   0  0  0  0  0  0  0  0  0  0  0  0
    0.3053   -0.8020  -14.1471 C   0  0  0  0  0  0  0  0  0  0  0  0
    1.5065   -1.4913  -14.6481 C   0  0  0  0  0  0  0  0  0  0  0  0
    2.8024   -1.2400  -13.9595 C   0  0  0  0  0  0  0  0  0  0  0  0
    4.0223   -1.9151  -14.4212 C   0  0  0  0  0  0  0  0  0  0  0  0
    5.1945   -1.6090  -13.7819 F   0  0  0  0  0  0  0  0  0  0  0  0
    3.9011   -3.2941  -14.5124 F   0  0  0  0  0  0  0  0  0  0  0  0
    4.2226   -1.4977  -15.7515 F   0  0  0  0  0  0  0  0  0  0  0  0
    3.0405    0.1417  -14.1083 F   0  0  0  0  0  0  0  0  0  0  0  0
    2.6935   -1.4354  -12.5900 F   0  0  0  0  0  0  0  0  0  0  0  0
    1.7318   -1.2047  -15.9967 F   0  0  0  0  0  0  0  0  0  0  0  0
    1.3503   -2.8949  -14.6382 F   0  0  0  0  0  0  0  0  0  0  0  0
    0.5240    0.5501  -13.8830 F   0  0  0  0  0  0  0  0  0  0  0  0
    0.0497   -1.3390  -12.8559 F   0  0  0  0  0  0  0  0  0  0  0  0
   -1.1266   -2.2935  -15.3112 F   0  0  0  0  0  0  0  0  0  0  0  0
   -0.8944   -0.2314  -16.0687 F   0  0  0  0  0  0  0  0  0  0  0  0
   -2.5579   -1.2873  -13.0865 F   0  0  0  0  0  0  0  0  0  0  0  0
   -2.2483    0.7982  -13.8977 F   0  0  0  0  0  0  0  0  0  0  0  0
   -3.5793   -2.0694  -15.4888 F   0  0  0  0  0  0  0  0  0  0  0  0
   -3.1255    0.0312  -16.2936 F   0  0  0  0  0  0  0  0  0  0  0  0
   -5.1258    1.0686  -14.7692 O   0  0  0  0  0  0  0  0  0  0  0  0
  1  2  2  0
  1  3  1  0
  3  4  1  0
  4  5  1  0
  5  6  1  0
  6  7  1  0
  7  8  1  0
  8  9  1  0
  9 10  1  0
  9 11  1  0
  9 12  1  0
  8 13  1  0
  8 14  1  0
  7 15  1  0
  7 16  1  0
  6 17  1  0
  6 18  1  0
  5 19  1  0
  5 20  1  0
  4 21  1  0
  4 22  1  0
  3 23  1  0
  3 24  1  0
  1 25  1  0
M  END
$$$$
