
     RDKit          3D

 25 24  0  0  0  0  0  0  0  0999 V2000
   -2.2208   -0.7190  -14.7236 C   0  0  0  0  0  0  0  0  0  0  0  0
   -3.3125   -0.1679  -14.3724 O   0  0  0  0  0  0  0  0  0  0  0  0
   -1.0485   -0.7082  -13.8090 C   0  0  0  0  0  0  0  0  0  0  0  0
   -1.4593   -1.3473  -12.4498 C   0  0  0  0  0  0  0  0  0  0  0  0
   -0.3229   -1.1878  -11.4915 C   0  0  0  0  0  0  0  0  0  0  0  0
   -0.5484   -1.5389  -10.0663 C   0  0  0  0  0  0  0  0  0  0  0  0
    0.5586   -1.3715   -9.1095 C   0  0  0  0  0  0  0  0  0  0  0  0
    0.4466   -2.0309   -7.7793 C   0  0  0  0  0  0  0  0  0  0  0  0
    1.5545   -1.9402   -6.8192 C   0  0  0  0  0  0  0  0  0  0  0  0
    1.3501   -2.4584   -5.5678 F   0  0  0  0  0  0  0  0  0  0  0  0
    2.7646   -2.4063   -7.3119 F   0  0  0  0  0  0  0  0  0  0  0  0
    1.7760   -0.5659   -6.6038 F   0  0  0  0  0  0  0  0  0  0  0  0
   -0.6619   -1.4229   -7.1552 F   0  0  0  0  0  0  0  0  0  0  0  0
    0.0936   -3.3670   -7.9054 F   0  0  0  0  0  0  0  0  0  0  0  0
    0.8017   -0.0217   -8.8443 F   0  0  0  0  0  0  0  0  0  0  0  0
    1.7868   -1.8221   -9.6417 F   0  0  0  0  0  0  0  0  0  0  0  0
   -1.7442   -0.9771   -9.6189 F   0  0  0  0  0  0  0  0  0  0  0  0
   -0.8428   -2.9295  -10.0924 F   0  0  0  0  0  0  0  0  0  0  0  0
    0.8075   -1.8339  -11.9910 F   0  0  0  0  0  0  0  0  0  0  0  0
    0.0175    0.1799  -11.5437 F   0  0  0  0  0  0  0  0  0  0  0  0
   -1.7197   -2.6883  -12.7520 F   0  0  0  0  0  0  0  0  0  0  0  0
   -2.5998   -0.7256  -12.0617 F   0  0  0  0  0  0  0  0  0  0  0  0
   -0.0194   -1.3847  -14.3880 F   0  0  0  0  0  0  0  0  0  0  0  0
   -0.7527    0.6039  -13.5084 F   0  0  0  0  0  0  0  0  0  0  0  0
   -2.2012   -1.3109  -15.9777 O   0  0  0  0  0  0  0  0  0  0  0  0
  1  2  2  0
  1  3  1  0
  3  4  1  0
  4  5  1  0
  5  6  1  0
  6  7  1  0
  7  8  1  0
  8  9  1  0
  9 10  1  0
  9 11  1  0
  9 12  1  0
  8 13  1  0
  8 14  1  0
  7 15  1  0
  7 16  1  0
  6 17  1  0
  6 18  1  0
  5 19  1  0
  5 20  1  0
  4 21  1  0
  4 22  1  0
  3 23  1  0
  3 24  1  0
  1 25  1  0
M  END
$$$$
