
     RDKit          3D

 25 24  0  0  0  0  0  0  0  0999 V2000
    8.0541    2.8623    4.7758 C   0  0  0  0  0  0  0  0  0  0  0  0
    7.0701    2.0625    4.8799 O   0  0  0  0  0  0  0  0  0  0  0  0
    7.9611    4.0523    3.8891 C   0  0  0  0  0  0  0  0  0  0  0  0
    6.6238    3.9896    3.0941 C   0  0  0  0  0  0  0  0  0  0  0  0
    6.6084    5.1135    2.1082 C   0  0  0  0  0  0  0  0  0  0  0  0
    5.5345    5.1368    1.0828 C   0  0  0  0  0  0  0  0  0  0  0  0
    5.6700    6.0463   -0.0675 C   0  0  0  0  0  0  0  0  0  0  0  0
    4.7751    5.8394   -1.2392 C   0  0  0  0  0  0  0  0  0  0  0  0
    5.0819    6.4874   -2.5212 C   0  0  0  0  0  0  0  0  0  0  0  0
    4.0627    6.6073   -3.4285 F   0  0  0  0  0  0  0  0  0  0  0  0
    5.7224    7.7112   -2.3930 F   0  0  0  0  0  0  0  0  0  0  0  0
    6.0318    5.6659   -3.1590 F   0  0  0  0  0  0  0  0  0  0  0  0
    4.8017    4.4516   -1.4868 F   0  0  0  0  0  0  0  0  0  0  0  0
    3.4532    6.1172   -0.9211 F   0  0  0  0  0  0  0  0  0  0  0  0
    6.9708    6.0317   -0.5767 F   0  0  0  0  0  0  0  0  0  0  0  0
    5.4842    7.3961    0.3040 F   0  0  0  0  0  0  0  0  0  0  0  0
    5.2003    3.8346    0.7108 F   0  0  0  0  0  0  0  0  0  0  0  0
    4.3821    5.5677    1.7950 F   0  0  0  0  0  0  0  0  0  0  0  0
    6.6796    6.3318    2.7830 F   0  0  0  0  0  0  0  0  0  0  0  0
    7.8422    5.0290    1.4300 F   0  0  0  0  0  0  0  0  0  0  0  0
    5.6260    4.1178    4.0665 F   0  0  0  0  0  0  0  0  0  0  0  0
    6.5699    2.7588    2.5286 F   0  0  0  0  0  0  0  0  0  0  0  0
    8.0415    5.1826    4.6425 F   0  0  0  0  0  0  0  0  0  0  0  0
    8.9473    3.9503    2.9317 F   0  0  0  0  0  0  0  0  0  0  0  0
    9.1822    2.5568    5.5224 O   0  0  0  0  0  0  0  0  0  0  0  0
  1  2  2  0
  1  3  1  0
  3  4  1  0
  4  5  1  0
  5  6  1  0
  6  7  1  0
  7  8  1  0
  8  9  1  0
  9 10  1  0
  9 11  1  0
  9 12  1  0
  8 13  1  0
  8 14  1  0
  7 15  1  0
  7 16  1  0
  6 17  1  0
  6 18  1  0
  5 19  1  0
  5 20  1  0
  4 21  1  0
  4 22  1  0
  3 23  1  0
  3 24  1  0
  1 25  1  0
M  END
$$$$
