
     RDKit          3D

  5  4  0  0  0  0  0  0  0  0999 V2000
   -0.7670   -7.7313   -1.7262 C   0  0  0  0  0  0  0  0  0  0  0  0
   -2.0741   -8.4099   -1.8517 C   0  0  0  0  0  0  0  0  0  0  0  0
   -2.6975   -8.7443   -0.8223 O   0  0  0  0  0  0  0  0  0  0  0  0
   -2.6647   -8.7052   -3.0760 O   0  0  0  0  0  0  0  0  0  0  0  0
   -0.4404   -7.5217   -0.3981 F   0  0  0  0  0  0  0  0  0  0  0  0
  1  2  1  0
  2  3  2  0
  2  4  1  0
  1  5  1  0
M  END
$$$$
