
     RDKit          3D

  5  4  0  0  0  0  0  0  0  0999 V2000
    2.1191    3.8435   -9.5661 C   0  0  0  0  0  0  0  0  0  0  0  0
    1.9058    3.5178  -10.9921 C   0  0  0  0  0  0  0  0  0  0  0  0
    2.6795    3.9843  -11.8545 O   0  0  0  0  0  0  0  0  0  0  0  0
    0.8709    2.7039  -11.4410 O   0  0  0  0  0  0  0  0  0  0  0  0
    0.9150    4.0562   -8.9187 F   0  0  0  0  0  0  0  0  0  0  0  0
  1  2  1  0
  2  3  2  0
  2  4  1  0
  1  5  1  0
M  END
$$$$
