
     RDKit          3D

  5  4  0  0  0  0  0  0  0  0999 V2000
   -9.3012   -4.9593  -14.2514 C   0  0  0  0  0  0  0  0  0  0  0  0
   -8.6825   -5.6828  -13.1206 C   0  0  0  0  0  0  0  0  0  0  0  0
   -7.9872   -6.6964  -13.3424 O   0  0  0  0  0  0  0  0  0  0  0  0
   -8.8320   -5.2929  -11.7937 O   0  0  0  0  0  0  0  0  0  0  0  0
   -9.2492   -5.7114  -15.4117 F   0  0  0  0  0  0  0  0  0  0  0  0
  1  2  1  0
  2  3  2  0
  2  4  1  0
  1  5  1  0
M  END
$$$$
