
     RDKit          3D

  5  4  0  0  0  0  0  0  0  0999 V2000
   13.5134   11.5881  -10.4071 C   0  0  0  0  0  0  0  0  0  0  0  0
   13.0756   12.9986  -10.3458 C   0  0  0  0  0  0  0  0  0  0  0  0
   12.1368   13.3213   -9.5878 O   0  0  0  0  0  0  0  0  0  0  0  0
   13.6604   14.0112  -11.0993 O   0  0  0  0  0  0  0  0  0  0  0  0
   12.7739   10.7994   -9.5436 F   0  0  0  0  0  0  0  0  0  0  0  0
  1  2  1  0
  2  3  2  0
  2  4  1  0
  1  5  1  0
M  END
$$$$
