
     RDKit          3D

 25 24  0  0  0  0  0  0  0  0999 V2000
   14.5508    7.2656   -0.7617 C   0  0  0  0  0  0  0  0  0  0  0  0
   14.4513    8.1320    0.1252 O   0  0  0  0  0  0  0  0  0  0  0  0
   14.9853    5.8779   -0.6366 C   0  0  0  0  0  0  0  0  0  0  0  0
   14.0126    4.8895   -0.0753 C   0  0  0  0  0  0  0  0  0  0  0  0
   14.5040    3.4826   -0.0307 C   0  0  0  0  0  0  0  0  0  0  0  0
   13.6970    2.5389    0.7826 C   0  0  0  0  0  0  0  0  0  0  0  0
   14.0290    1.1064    0.7997 C   0  0  0  0  0  0  0  0  0  0  0  0
   13.2245    0.2182    1.6828 C   0  0  0  0  0  0  0  0  0  0  0  0
   13.6747   -1.2293    1.4228 C   0  0  0  0  0  0  0  0  0  0  0  0
   12.9693   -2.1395    2.1397 F   0  0  0  0  0  0  0  0  0  0  0  0
   13.4509   -1.5161    0.0764 F   0  0  0  0  0  0  0  0  0  0  0  0
   15.0200   -1.3440    1.6173 F   0  0  0  0  0  0  0  0  0  0  0  0
   11.8773    0.2372    1.3550 F   0  0  0  0  0  0  0  0  0  0  0  0
   13.3473    0.3949    3.0263 F   0  0  0  0  0  0  0  0  0  0  0  0
   13.7228    0.6563   -0.5171 F   0  0  0  0  0  0  0  0  0  0  0  0
   15.3730    0.7985    0.9195 F   0  0  0  0  0  0  0  0  0  0  0  0
   12.3825    2.6369    0.2786 F   0  0  0  0  0  0  0  0  0  0  0  0
   13.5878    2.9948    2.0888 F   0  0  0  0  0  0  0  0  0  0  0  0
   15.7743    3.4750    0.5659 F   0  0  0  0  0  0  0  0  0  0  0  0
   14.7444    3.0168   -1.3190 F   0  0  0  0  0  0  0  0  0  0  0  0
   12.8753    4.9722   -0.8863 F   0  0  0  0  0  0  0  0  0  0  0  0
   13.5945    5.2632    1.2048 F   0  0  0  0  0  0  0  0  0  0  0  0
   15.4155    5.4415   -1.8992 F   0  0  0  0  0  0  0  0  0  0  0  0
   16.1624    5.9044    0.1122 F   0  0  0  0  0  0  0  0  0  0  0  0
   14.1925    7.6927   -2.0625 O   0  0  0  0  0  0  0  0  0  0  0  0
  1  2  2  0
  1  3  1  0
  3  4  1  0
  4  5  1  0
  5  6  1  0
  6  7  1  0
  7  8  1  0
  8  9  1  0
  9 10  1  0
  9 11  1  0
  9 12  1  0
  8 13  1  0
  8 14  1  0
  7 15  1  0
  7 16  1  0
  6 17  1  0
  6 18  1  0
  5 19  1  0
  5 20  1  0
  4 21  1  0
  4 22  1  0
  3 23  1  0
  3 24  1  0
  1 25  1  0
M  END
$$$$
