
     RDKit          3D

 25 24  0  0  0  0  0  0  0  0999 V2000
   15.0760   10.7820   -0.4021 C   0  0  0  0  0  0  0  0  0  0  0  0
   16.2238   10.8761    0.0677 O   0  0  0  0  0  0  0  0  0  0  0  0
   14.2633    9.5845   -0.5918 C   0  0  0  0  0  0  0  0  0  0  0  0
   14.9009    8.2581   -0.3227 C   0  0  0  0  0  0  0  0  0  0  0  0
   13.9805    7.0892   -0.4193 C   0  0  0  0  0  0  0  0  0  0  0  0
   14.6204    5.7518   -0.3465 C   0  0  0  0  0  0  0  0  0  0  0  0
   13.8043    4.5340   -0.4644 C   0  0  0  0  0  0  0  0  0  0  0  0
   14.5127    3.2255   -0.5062 C   0  0  0  0  0  0  0  0  0  0  0  0
   13.4453    2.1184   -0.5337 C   0  0  0  0  0  0  0  0  0  0  0  0
   12.6248    2.1478    0.5461 F   0  0  0  0  0  0  0  0  0  0  0  0
   12.6418    2.3208   -1.6557 F   0  0  0  0  0  0  0  0  0  0  0  0
   14.0366    0.9011   -0.7044 F   0  0  0  0  0  0  0  0  0  0  0  0
   15.2421    2.9893    0.6493 F   0  0  0  0  0  0  0  0  0  0  0  0
   15.3099    2.9802   -1.5812 F   0  0  0  0  0  0  0  0  0  0  0  0
   13.0604    4.4876    0.7501 F   0  0  0  0  0  0  0  0  0  0  0  0
   12.8101    4.5631   -1.4268 F   0  0  0  0  0  0  0  0  0  0  0  0
   15.2355    5.6975    0.9223 F   0  0  0  0  0  0  0  0  0  0  0  0
   15.6831    5.6734   -1.2356 F   0  0  0  0  0  0  0  0  0  0  0  0
   13.3546    7.1199   -1.6750 F   0  0  0  0  0  0  0  0  0  0  0  0
   12.9259    7.2332    0.4760 F   0  0  0  0  0  0  0  0  0  0  0  0
   15.4281    8.3447    0.9707 F   0  0  0  0  0  0  0  0  0  0  0  0
   15.9949    8.0431   -1.1653 F   0  0  0  0  0  0  0  0  0  0  0  0
   13.1085    9.7136    0.1950 F   0  0  0  0  0  0  0  0  0  0  0  0
   13.7722    9.6498   -1.8962 F   0  0  0  0  0  0  0  0  0  0  0  0
   14.4883   12.0052   -0.8036 O   0  0  0  0  0  0  0  0  0  0  0  0
  1  2  2  0
  1  3  1  0
  3  4  1  0
  4  5  1  0
  5  6  1  0
  6  7  1  0
  7  8  1  0
  8  9  1  0
  9 10  1  0
  9 11  1  0
  9 12  1  0
  8 13  1  0
  8 14  1  0
  7 15  1  0
  7 16  1  0
  6 17  1  0
  6 18  1  0
  5 19  1  0
  5 20  1  0
  4 21  1  0
  4 22  1  0
  3 23  1  0
  3 24  1  0
  1 25  1  0
M  END
$$$$
