
     RDKit          3D

 25 24  0  0  0  0  0  0  0  0999 V2000
   15.9108    8.7743    1.0126 C   0  0  0  0  0  0  0  0  0  0  0  0
   16.8746    9.2072    1.6691 O   0  0  0  0  0  0  0  0  0  0  0  0
   15.1129    7.5747    1.2466 C   0  0  0  0  0  0  0  0  0  0  0  0
   15.3118    6.4131    0.3251 C   0  0  0  0  0  0  0  0  0  0  0  0
   14.3902    5.2642    0.5570 C   0  0  0  0  0  0  0  0  0  0  0  0
   14.6043    4.0761   -0.3067 C   0  0  0  0  0  0  0  0  0  0  0  0
   13.9531    2.7983    0.0185 C   0  0  0  0  0  0  0  0  0  0  0  0
   14.3234    1.6050   -0.7907 C   0  0  0  0  0  0  0  0  0  0  0  0
   13.6253    0.3844   -0.1677 C   0  0  0  0  0  0  0  0  0  0  0  0
   13.7890    0.3106    1.1769 F   0  0  0  0  0  0  0  0  0  0  0  0
   12.2554    0.5048   -0.4005 F   0  0  0  0  0  0  0  0  0  0  0  0
   14.0199   -0.7564   -0.8029 F   0  0  0  0  0  0  0  0  0  0  0  0
   15.6782    1.3203   -0.7114 F   0  0  0  0  0  0  0  0  0  0  0  0
   13.9539    1.5985   -2.1002 F   0  0  0  0  0  0  0  0  0  0  0  0
   14.4184    2.4873    1.3289 F   0  0  0  0  0  0  0  0  0  0  0  0
   12.5803    2.8453    0.1886 F   0  0  0  0  0  0  0  0  0  0  0  0
   15.9942    3.8339   -0.2755 F   0  0  0  0  0  0  0  0  0  0  0  0
   14.3505    4.3895   -1.6346 F   0  0  0  0  0  0  0  0  0  0  0  0
   13.0805    5.6821    0.2745 F   0  0  0  0  0  0  0  0  0  0  0  0
   14.3483    4.9479    1.9107 F   0  0  0  0  0  0  0  0  0  0  0  0
   16.6380    6.0052    0.5077 F   0  0  0  0  0  0  0  0  0  0  0  0
   15.2161    6.8068   -1.0123 F   0  0  0  0  0  0  0  0  0  0  0  0
   15.3282    7.1607    2.5702 F   0  0  0  0  0  0  0  0  0  0  0  0
   13.7803    7.9884    1.2522 F   0  0  0  0  0  0  0  0  0  0  0  0
   15.5474    9.5566   -0.1093 O   0  0  0  0  0  0  0  0  0  0  0  0
  1  2  2  0
  1  3  1  0
  3  4  1  0
  4  5  1  0
  5  6  1  0
  6  7  1  0
  7  8  1  0
  8  9  1  0
  9 10  1  0
  9 11  1  0
  9 12  1  0
  8 13  1  0
  8 14  1  0
  7 15  1  0
  7 16  1  0
  6 17  1  0
  6 18  1  0
  5 19  1  0
  5 20  1  0
  4 21  1  0
  4 22  1  0
  3 23  1  0
  3 24  1  0
  1 25  1  0
M  END
$$$$
