
     RDKit          3D

 25 24  0  0  0  0  0  0  0  0999 V2000
   14.6098    3.5082   -3.2428 C   0  0  0  0  0  0  0  0  0  0  0  0
   13.6078    3.9352   -3.8436 O   0  0  0  0  0  0  0  0  0  0  0  0
   14.7377    2.3100   -2.4193 C   0  0  0  0  0  0  0  0  0  0  0  0
   13.8947    2.2163   -1.1870 C   0  0  0  0  0  0  0  0  0  0  0  0
   14.1901    3.2423   -0.1462 C   0  0  0  0  0  0  0  0  0  0  0  0
   13.2682    3.2707    1.0169 C   0  0  0  0  0  0  0  0  0  0  0  0
   13.4404    4.2799    2.0727 C   0  0  0  0  0  0  0  0  0  0  0  0
   12.4870    4.2580    3.2156 C   0  0  0  0  0  0  0  0  0  0  0  0
   12.8522    5.4240    4.1497 C   0  0  0  0  0  0  0  0  0  0  0  0
   12.8591    6.6248    3.5189 F   0  0  0  0  0  0  0  0  0  0  0  0
   11.8806    5.4988    5.1476 F   0  0  0  0  0  0  0  0  0  0  0  0
   14.0306    5.1640    4.7855 F   0  0  0  0  0  0  0  0  0  0  0  0
   12.6304    3.1191    3.9936 F   0  0  0  0  0  0  0  0  0  0  0  0
   11.1670    4.4271    2.9320 F   0  0  0  0  0  0  0  0  0  0  0  0
   14.6979    3.9632    2.6633 F   0  0  0  0  0  0  0  0  0  0  0  0
   13.6287    5.5812    1.6404 F   0  0  0  0  0  0  0  0  0  0  0  0
   13.4111    2.0132    1.6411 F   0  0  0  0  0  0  0  0  0  0  0  0
   11.9479    3.2823    0.5894 F   0  0  0  0  0  0  0  0  0  0  0  0
   14.0712    4.5131   -0.7296 F   0  0  0  0  0  0  0  0  0  0  0  0
   15.5285    3.1768    0.2265 F   0  0  0  0  0  0  0  0  0  0  0  0
   14.1170    0.9349   -0.6703 F   0  0  0  0  0  0  0  0  0  0  0  0
   12.5339    2.2690   -1.5004 F   0  0  0  0  0  0  0  0  0  0  0  0
   14.4950    1.1940   -3.2348 F   0  0  0  0  0  0  0  0  0  0  0  0
   16.0934    2.1930   -2.1101 F   0  0  0  0  0  0  0  0  0  0  0  0
   15.7764    4.2970   -3.3827 O   0  0  0  0  0  0  0  0  0  0  0  0
  1  2  2  0
  1  3  1  0
  3  4  1  0
  4  5  1  0
  5  6  1  0
  6  7  1  0
  7  8  1  0
  8  9  1  0
  9 10  1  0
  9 11  1  0
  9 12  1  0
  8 13  1  0
  8 14  1  0
  7 15  1  0
  7 16  1  0
  6 17  1  0
  6 18  1  0
  5 19  1  0
  5 20  1  0
  4 21  1  0
  4 22  1  0
  3 23  1  0
  3 24  1  0
  1 25  1  0
M  END
$$$$
