
     RDKit          3D

 25 24  0  0  0  0  0  0  0  0999 V2000
   14.3329    3.2047    0.4846 C   0  0  0  0  0  0  0  0  0  0  0  0
   14.6897    2.0142    0.4343 O   0  0  0  0  0  0  0  0  0  0  0  0
   13.3471    3.8971   -0.3395 C   0  0  0  0  0  0  0  0  0  0  0  0
   13.3604    3.6351   -1.8123 C   0  0  0  0  0  0  0  0  0  0  0  0
   12.6657    4.6637   -2.6382 C   0  0  0  0  0  0  0  0  0  0  0  0
   12.6643    4.4268   -4.1036 C   0  0  0  0  0  0  0  0  0  0  0  0
   12.2899    5.5081   -5.0273 C   0  0  0  0  0  0  0  0  0  0  0  0
   12.0018    5.1438   -6.4415 C   0  0  0  0  0  0  0  0  0  0  0  0
   11.4523    6.3974   -7.1431 C   0  0  0  0  0  0  0  0  0  0  0  0
   11.1274    6.1773   -8.4415 F   0  0  0  0  0  0  0  0  0  0  0  0
   10.2781    6.7767   -6.4928 F   0  0  0  0  0  0  0  0  0  0  0  0
   12.3222    7.4375   -6.9939 F   0  0  0  0  0  0  0  0  0  0  0  0
   10.9867    4.2046   -6.5425 F   0  0  0  0  0  0  0  0  0  0  0  0
   13.0494    4.7356   -7.2078 F   0  0  0  0  0  0  0  0  0  0  0  0
   11.0417    5.9824   -4.5297 F   0  0  0  0  0  0  0  0  0  0  0  0
   13.0828    6.6417   -4.9844 F   0  0  0  0  0  0  0  0  0  0  0  0
   11.7376    3.3838   -4.3151 F   0  0  0  0  0  0  0  0  0  0  0  0
   13.8755    3.8835   -4.5083 F   0  0  0  0  0  0  0  0  0  0  0  0
   13.3308    5.8885   -2.4732 F   0  0  0  0  0  0  0  0  0  0  0  0
   11.3949    4.9100   -2.1293 F   0  0  0  0  0  0  0  0  0  0  0  0
   12.7442    2.3903   -1.9830 F   0  0  0  0  0  0  0  0  0  0  0  0
   14.6660    3.4810   -2.2863 F   0  0  0  0  0  0  0  0  0  0  0  0
   12.0727    3.6088    0.1727 F   0  0  0  0  0  0  0  0  0  0  0  0
   13.5011    5.2576   -0.0703 F   0  0  0  0  0  0  0  0  0  0  0  0
   14.9747    3.9835    1.4768 O   0  0  0  0  0  0  0  0  0  0  0  0
  1  2  2  0
  1  3  1  0
  3  4  1  0
  4  5  1  0
  5  6  1  0
  6  7  1  0
  7  8  1  0
  8  9  1  0
  9 10  1  0
  9 11  1  0
  9 12  1  0
  8 13  1  0
  8 14  1  0
  7 15  1  0
  7 16  1  0
  6 17  1  0
  6 18  1  0
  5 19  1  0
  5 20  1  0
  4 21  1  0
  4 22  1  0
  3 23  1  0
  3 24  1  0
  1 25  1  0
M  END
$$$$
