
     RDKit          3D

  4  3  0  0  0  0  0  0  0  0999 V2000
  -12.0259   -9.2498   -0.4728 C   0  0  0  0  0  0  0  0  0  0  0  0
  -13.1129   -9.0591    0.5644 C   0  0  0  0  0  0  0  0  0  0  0  0
  -12.2709   -9.1617    2.1404 Cl  0  0  0  0  0  0  0  0  0  0  0  0
  -12.8776   -9.6282   -2.0038 Cl  0  0  0  0  0  0  0  0  0  0  0  0
  1  2  1  0
  2  3  1  0
  1  4  1  0
M  END
$$$$
