
     RDKit          3D

  4  3  0  0  0  0  0  0  0  0999 V2000
    0.4012   -0.3082   -5.9848 C   0  0  0  0  0  0  0  0  0  0  0  0
    1.6675    0.1475   -5.2901 C   0  0  0  0  0  0  0  0  0  0  0  0
    2.3865   -1.3456   -4.6141 Cl  0  0  0  0  0  0  0  0  0  0  0  0
   -0.4798    1.1910   -6.4192 Cl  0  0  0  0  0  0  0  0  0  0  0  0
  1  2  1  0
  2  3  1  0
  1  4  1  0
M  END
$$$$
