
     RDKit          3D

  4  3  0  0  0  0  0  0  0  0999 V2000
  -13.2112   -7.6404    3.0945 C   0  0  0  0  0  0  0  0  0  0  0  0
  -11.9311   -8.1895    3.6892 C   0  0  0  0  0  0  0  0  0  0  0  0
  -11.2706   -9.2823    2.4351 Cl  0  0  0  0  0  0  0  0  0  0  0  0
  -13.7051   -6.2925    4.1676 Cl  0  0  0  0  0  0  0  0  0  0  0  0
  1  2  1  0
  2  3  1  0
  1  4  1  0
M  END
$$$$
