
     RDKit          3D

 29 28  0  0  0  0  0  0  0  0999 V2000
   -1.7961   -0.2940   -7.8333 C   0  0  0  0  0  0  0  0  0  0  0  0
   -1.6785   -0.3100   -9.2577 C   0  0  0  0  0  0  0  0  0  0  0  0
   -1.0377    0.5807  -10.2034 C   0  0  0  0  0  0  0  0  0  0  0  0
   -1.2229    0.5424  -11.6477 C   0  0  0  0  0  0  0  0  0  0  0  0
   -0.7356    1.4671  -12.6409 C   0  0  0  0  0  0  0  0  0  0  0  0
    0.6678    1.6613  -12.2998 F   0  0  0  0  0  0  0  0  0  0  0  0
   -1.1674    2.7339  -12.7398 F   0  0  0  0  0  0  0  0  0  0  0  0
   -0.5158    0.7996  -14.2841 S   0  0  0  0  0  0  0  0  0  0  0  0
    0.8482    0.1748  -14.3021 O   0  0  0  0  0  0  0  0  0  0  0  0
   -0.5686    1.7928  -15.3725 O   0  0  0  0  0  0  0  0  0  0  0  0
   -1.6089   -0.4698  -14.5391 O   0  0  0  0  0  0  0  0  0  0  0  0
   -0.7788   -0.7472  -12.0844 F   0  0  0  0  0  0  0  0  0  0  0  0
   -2.6260    0.4011  -11.9066 F   0  0  0  0  0  0  0  0  0  0  0  0
   -1.5591    1.8669   -9.8355 F   0  0  0  0  0  0  0  0  0  0  0  0
    0.3200    0.8349   -9.8578 F   0  0  0  0  0  0  0  0  0  0  0  0
   -3.0345   -0.4917   -9.7370 F   0  0  0  0  0  0  0  0  0  0  0  0
   -1.1791   -1.6261   -9.5845 F   0  0  0  0  0  0  0  0  0  0  0  0
   -2.1188   -1.4898   -7.0260 C   0  0  0  0  0  0  0  0  0  0  0  0
   -2.1405   -1.0095   -5.5554 C   0  0  0  0  0  0  0  0  0  0  0  0
   -2.1171   -2.1696   -4.6164 C   0  0  0  0  0  0  0  0  0  0  0  0
   -2.0341   -3.3590   -5.3377 F   0  0  0  0  0  0  0  0  0  0  0  0
   -3.1147   -2.1660   -3.6917 F   0  0  0  0  0  0  0  0  0  0  0  0
   -0.9077   -2.1038   -3.9111 F   0  0  0  0  0  0  0  0  0  0  0  0
   -3.2692   -0.2575   -5.2924 F   0  0  0  0  0  0  0  0  0  0  0  0
   -1.0467   -0.2186   -5.2945 F   0  0  0  0  0  0  0  0  0  0  0  0
   -3.3120   -2.0856   -7.2146 F   0  0  0  0  0  0  0  0  0  0  0  0
   -1.0492   -2.3877   -7.0540 F   0  0  0  0  0  0  0  0  0  0  0  0
   -0.4569    0.0160   -7.3667 F   0  0  0  0  0  0  0  0  0  0  0  0
   -2.4568    0.8127   -7.2584 F   0  0  0  0  0  0  0  0  0  0  0  0
  1  2  1  0
  2  3  1  0
  3  4  1  0
  4  5  1  0
  5  6  1  0
  5  7  1  0
  5  8  1  0
  8  9  2  0
  8 10  2  0
  8 11  1  0
  4 12  1  0
  4 13  1  0
  3 14  1  0
  3 15  1  0
  2 16  1  0
  2 17  1  0
  1 18  1  0
 18 19  1  0
 19 20  1  0
 20 21  1  0
 20 22  1  0
 20 23  1  0
 19 24  1  0
 19 25  1  0
 18 26  1  0
 18 27  1  0
  1 28  1  0
  1 29  1  0
M  END
$$$$
