
     RDKit          3D

 29 28  0  0  0  0  0  0  0  0999 V2000
    1.8239   -5.5021   -2.8800 C   0  0  0  0  0  0  0  0  0  0  0  0
    0.6288   -4.7476   -3.0932 C   0  0  0  0  0  0  0  0  0  0  0  0
    0.2070   -3.8471   -4.1465 C   0  0  0  0  0  0  0  0  0  0  0  0
   -0.9090   -2.9155   -4.0549 C   0  0  0  0  0  0  0  0  0  0  0  0
   -1.1967   -1.7734   -4.8867 C   0  0  0  0  0  0  0  0  0  0  0  0
   -0.9381   -2.2372   -6.2438 F   0  0  0  0  0  0  0  0  0  0  0  0
   -0.4822   -0.6380   -4.8484 F   0  0  0  0  0  0  0  0  0  0  0  0
   -2.9262   -1.3639   -5.0749 S   0  0  0  0  0  0  0  0  0  0  0  0
   -2.9894   -0.2880   -6.1187 O   0  0  0  0  0  0  0  0  0  0  0  0
   -3.5805   -0.8478   -3.8586 O   0  0  0  0  0  0  0  0  0  0  0  0
   -3.7621   -2.6873   -5.7240 O   0  0  0  0  0  0  0  0  0  0  0  0
   -2.1043   -3.7041   -4.0721 F   0  0  0  0  0  0  0  0  0  0  0  0
   -0.9706   -2.4359   -2.7051 F   0  0  0  0  0  0  0  0  0  0  0  0
    1.3455   -2.9870   -4.3073 F   0  0  0  0  0  0  0  0  0  0  0  0
    0.2687   -4.4633   -5.4287 F   0  0  0  0  0  0  0  0  0  0  0  0
    0.4177   -4.0332   -1.8496 F   0  0  0  0  0  0  0  0  0  0  0  0
   -0.4515   -5.6976   -2.9572 F   0  0  0  0  0  0  0  0  0  0  0  0
    2.2809   -5.9508   -1.5474 C   0  0  0  0  0  0  0  0  0  0  0  0
    3.8144   -6.1187   -1.6646 C   0  0  0  0  0  0  0  0  0  0  0  0
    4.4978   -5.6457   -0.4247 C   0  0  0  0  0  0  0  0  0  0  0  0
    5.8704   -5.5564   -0.6471 F   0  0  0  0  0  0  0  0  0  0  0  0
    4.1757   -6.3441    0.6973 F   0  0  0  0  0  0  0  0  0  0  0  0
    4.0917   -4.3213   -0.2108 F   0  0  0  0  0  0  0  0  0  0  0  0
    4.3142   -5.4062   -2.7376 F   0  0  0  0  0  0  0  0  0  0  0  0
    4.1371   -7.4408   -1.8599 F   0  0  0  0  0  0  0  0  0  0  0  0
    2.1009   -5.1253   -0.4983 F   0  0  0  0  0  0  0  0  0  0  0  0
    1.8339   -7.2513   -1.3023 F   0  0  0  0  0  0  0  0  0  0  0  0
    1.5696   -6.7700   -3.5395 F   0  0  0  0  0  0  0  0  0  0  0  0
    2.9602   -5.1253   -3.6276 F   0  0  0  0  0  0  0  0  0  0  0  0
  1  2  1  0
  2  3  1  0
  3  4  1  0
  4  5  1  0
  5  6  1  0
  5  7  1  0
  5  8  1  0
  8  9  2  0
  8 10  2  0
  8 11  1  0
  4 12  1  0
  4 13  1  0
  3 14  1  0
  3 15  1  0
  2 16  1  0
  2 17  1  0
  1 18  1  0
 18 19  1  0
 19 20  1  0
 20 21  1  0
 20 22  1  0
 20 23  1  0
 19 24  1  0
 19 25  1  0
 18 26  1  0
 18 27  1  0
  1 28  1  0
  1 29  1  0
M  END
$$$$
