
     RDKit          3D

 29 28  0  0  0  0  0  0  0  0999 V2000
    0.8423   -5.5076   -2.3155 C   0  0  0  0  0  0  0  0  0  0  0  0
    0.3377   -4.7562   -3.4217 C   0  0  0  0  0  0  0  0  0  0  0  0
    0.2230   -3.3349   -3.6768 C   0  0  0  0  0  0  0  0  0  0  0  0
   -0.7569   -2.7192   -4.5613 C   0  0  0  0  0  0  0  0  0  0  0  0
   -0.9928   -1.3176   -4.8041 C   0  0  0  0  0  0  0  0  0  0  0  0
    0.2742   -0.8201   -5.3244 F   0  0  0  0  0  0  0  0  0  0  0  0
   -1.2481   -0.4353   -3.8256 F   0  0  0  0  0  0  0  0  0  0  0  0
   -2.0231   -0.9346   -6.2133 S   0  0  0  0  0  0  0  0  0  0  0  0
   -1.1058   -0.3796   -7.2628 O   0  0  0  0  0  0  0  0  0  0  0  0
   -3.0754    0.0671   -5.9621 O   0  0  0  0  0  0  0  0  0  0  0  0
   -2.6595   -2.3637   -6.8645 O   0  0  0  0  0  0  0  0  0  0  0  0
   -0.5609   -3.2975   -5.8568 F   0  0  0  0  0  0  0  0  0  0  0  0
   -2.0400   -3.2792   -4.2524 F   0  0  0  0  0  0  0  0  0  0  0  0
   -0.1149   -2.8043   -2.3860 F   0  0  0  0  0  0  0  0  0  0  0  0
    1.4978   -2.7118   -3.7956 F   0  0  0  0  0  0  0  0  0  0  0  0
   -0.9755   -5.3144   -3.6776 F   0  0  0  0  0  0  0  0  0  0  0  0
    1.0069   -5.2929   -4.5845 F   0  0  0  0  0  0  0  0  0  0  0  0
    0.5604   -6.9438   -2.1060 C   0  0  0  0  0  0  0  0  0  0  0  0
    0.8557   -7.2154   -0.6117 C   0  0  0  0  0  0  0  0  0  0  0  0
   -0.4003   -7.1786    0.1941 C   0  0  0  0  0  0  0  0  0  0  0  0
   -1.2966   -8.1319   -0.2852 F   0  0  0  0  0  0  0  0  0  0  0  0
   -0.9474   -5.9404    0.3279 F   0  0  0  0  0  0  0  0  0  0  0  0
   -0.0752   -7.6219    1.4834 F   0  0  0  0  0  0  0  0  0  0  0  0
    1.7320   -6.2792   -0.0977 F   0  0  0  0  0  0  0  0  0  0  0  0
    1.4345   -8.4527   -0.4559 F   0  0  0  0  0  0  0  0  0  0  0  0
   -0.6987   -7.3827   -2.2967 F   0  0  0  0  0  0  0  0  0  0  0  0
    1.5155   -7.7193   -2.7674 F   0  0  0  0  0  0  0  0  0  0  0  0
    2.2796   -5.5226   -2.5182 F   0  0  0  0  0  0  0  0  0  0  0  0
    0.8363   -4.8728   -1.0550 F   0  0  0  0  0  0  0  0  0  0  0  0
  1  2  1  0
  2  3  1  0
  3  4  1  0
  4  5  1  0
  5  6  1  0
  5  7  1  0
  5  8  1  0
  8  9  2  0
  8 10  2  0
  8 11  1  0
  4 12  1  0
  4 13  1  0
  3 14  1  0
  3 15  1  0
  2 16  1  0
  2 17  1  0
  1 18  1  0
 18 19  1  0
 19 20  1  0
 20 21  1  0
 20 22  1  0
 20 23  1  0
 19 24  1  0
 19 25  1  0
 18 26  1  0
 18 27  1  0
  1 28  1  0
  1 29  1  0
M  END
$$$$
