
     RDKit          3D

 29 28  0  0  0  0  0  0  0  0999 V2000
    0.9621   -5.6530   -2.4464 C   0  0  0  0  0  0  0  0  0  0  0  0
    0.4687   -4.3872   -2.8907 C   0  0  0  0  0  0  0  0  0  0  0  0
   -0.5286   -4.0074   -3.8703 C   0  0  0  0  0  0  0  0  0  0  0  0
   -0.7399   -2.6554   -4.3692 C   0  0  0  0  0  0  0  0  0  0  0  0
   -1.1327   -2.2369   -5.6919 C   0  0  0  0  0  0  0  0  0  0  0  0
   -2.5304   -2.6351   -5.7995 F   0  0  0  0  0  0  0  0  0  0  0  0
   -0.6149   -2.7626   -6.8129 F   0  0  0  0  0  0  0  0  0  0  0  0
   -1.3435   -0.4769   -5.9207 S   0  0  0  0  0  0  0  0  0  0  0  0
   -2.1365   -0.3120   -7.1836 O   0  0  0  0  0  0  0  0  0  0  0  0
   -0.0912    0.2860   -6.0745 O   0  0  0  0  0  0  0  0  0  0  0  0
   -2.3129    0.1512   -4.6809 O   0  0  0  0  0  0  0  0  0  0  0  0
   -1.6779   -2.0331   -3.4838 F   0  0  0  0  0  0  0  0  0  0  0  0
    0.4244   -1.8825   -4.0491 F   0  0  0  0  0  0  0  0  0  0  0  0
   -0.1209   -4.7333   -5.0401 F   0  0  0  0  0  0  0  0  0  0  0  0
   -1.7629   -4.6861   -3.6625 F   0  0  0  0  0  0  0  0  0  0  0  0
    1.6566   -3.6218   -3.2137 F   0  0  0  0  0  0  0  0  0  0  0  0
    0.1014   -3.6771   -1.6870 F   0  0  0  0  0  0  0  0  0  0  0  0
    1.8652   -5.8174   -1.2873 C   0  0  0  0  0  0  0  0  0  0  0  0
    3.2343   -6.2303   -1.8778 C   0  0  0  0  0  0  0  0  0  0  0  0
    4.3449   -5.4785   -1.2223 C   0  0  0  0  0  0  0  0  0  0  0  0
    4.7468   -6.1437   -0.0657 F   0  0  0  0  0  0  0  0  0  0  0  0
    4.0912   -4.1567   -1.0260 F   0  0  0  0  0  0  0  0  0  0  0  0
    5.4549   -5.5582   -2.0745 F   0  0  0  0  0  0  0  0  0  0  0  0
    3.2855   -5.9879   -3.2370 F   0  0  0  0  0  0  0  0  0  0  0  0
    3.4505   -7.5749   -1.6891 F   0  0  0  0  0  0  0  0  0  0  0  0
    2.1271   -4.7397   -0.5229 F   0  0  0  0  0  0  0  0  0  0  0  0
    1.4868   -6.9368   -0.5423 F   0  0  0  0  0  0  0  0  0  0  0  0
   -0.2217   -6.3596   -1.9920 F   0  0  0  0  0  0  0  0  0  0  0  0
    1.3585   -6.5706   -3.4428 F   0  0  0  0  0  0  0  0  0  0  0  0
  1  2  1  0
  2  3  1  0
  3  4  1  0
  4  5  1  0
  5  6  1  0
  5  7  1  0
  5  8  1  0
  8  9  2  0
  8 10  2  0
  8 11  1  0
  4 12  1  0
  4 13  1  0
  3 14  1  0
  3 15  1  0
  2 16  1  0
  2 17  1  0
  1 18  1  0
 18 19  1  0
 19 20  1  0
 20 21  1  0
 20 22  1  0
 20 23  1  0
 19 24  1  0
 19 25  1  0
 18 26  1  0
 18 27  1  0
  1 28  1  0
  1 29  1  0
M  END
$$$$
