
     RDKit          3D

 29 28  0  0  0  0  0  0  0  0999 V2000
    4.1286   -5.7689   -0.5419 C   0  0  0  0  0  0  0  0  0  0  0  0
    3.4609   -5.9920   -1.7859 C   0  0  0  0  0  0  0  0  0  0  0  0
    3.9144   -5.9899   -3.1616 C   0  0  0  0  0  0  0  0  0  0  0  0
    3.4566   -6.9078   -4.1957 C   0  0  0  0  0  0  0  0  0  0  0  0
    3.9730   -7.0884   -5.5297 C   0  0  0  0  0  0  0  0  0  0  0  0
    5.4085   -7.2578   -5.3444 F   0  0  0  0  0  0  0  0  0  0  0  0
    3.9330   -6.1305   -6.4689 F   0  0  0  0  0  0  0  0  0  0  0  0
    3.6198   -8.6647   -6.2942 S   0  0  0  0  0  0  0  0  0  0  0  0
    4.1227   -8.5671   -7.7044 O   0  0  0  0  0  0  0  0  0  0  0  0
    2.1907   -9.0233   -6.3515 O   0  0  0  0  0  0  0  0  0  0  0  0
    4.5428   -9.8798   -5.5574 O   0  0  0  0  0  0  0  0  0  0  0  0
    3.4560   -8.2158   -3.6125 F   0  0  0  0  0  0  0  0  0  0  0  0
    2.0429   -6.7253   -4.3500 F   0  0  0  0  0  0  0  0  0  0  0  0
    3.4802   -4.7074   -3.6397 F   0  0  0  0  0  0  0  0  0  0  0  0
    5.3145   -5.7499   -3.2592 F   0  0  0  0  0  0  0  0  0  0  0  0
    2.3054   -5.1176   -1.7455 F   0  0  0  0  0  0  0  0  0  0  0  0
    2.7613   -7.2460   -1.6237 F   0  0  0  0  0  0  0  0  0  0  0  0
    3.4539   -5.8363    0.7719 C   0  0  0  0  0  0  0  0  0  0  0  0
    4.5795   -5.7249    1.8276 C   0  0  0  0  0  0  0  0  0  0  0  0
    4.0235   -5.3465    3.1602 C   0  0  0  0  0  0  0  0  0  0  0  0
    3.2283   -6.3804    3.6505 F   0  0  0  0  0  0  0  0  0  0  0  0
    3.4118   -4.1320    3.1910 F   0  0  0  0  0  0  0  0  0  0  0  0
    5.1022   -5.2822    4.0529 F   0  0  0  0  0  0  0  0  0  0  0  0
    5.5164   -4.7782    1.4605 F   0  0  0  0  0  0  0  0  0  0  0  0
    5.2347   -6.9267    1.9566 F   0  0  0  0  0  0  0  0  0  0  0  0
    2.5795   -4.8631    1.0923 F   0  0  0  0  0  0  0  0  0  0  0  0
    2.9439   -7.1197    0.9815 F   0  0  0  0  0  0  0  0  0  0  0  0
    5.0709   -6.8683   -0.4387 F   0  0  0  0  0  0  0  0  0  0  0  0
    5.0648   -4.7137   -0.4987 F   0  0  0  0  0  0  0  0  0  0  0  0
  1  2  1  0
  2  3  1  0
  3  4  1  0
  4  5  1  0
  5  6  1  0
  5  7  1  0
  5  8  1  0
  8  9  2  0
  8 10  2  0
  8 11  1  0
  4 12  1  0
  4 13  1  0
  3 14  1  0
  3 15  1  0
  2 16  1  0
  2 17  1  0
  1 18  1  0
 18 19  1  0
 19 20  1  0
 20 21  1  0
 20 22  1  0
 20 23  1  0
 19 24  1  0
 19 25  1  0
 18 26  1  0
 18 27  1  0
  1 28  1  0
  1 29  1  0
M  END
$$$$
