
     RDKit          3D

 29 28  0  0  0  0  0  0  0  0999 V2000
    2.3320   -5.9431   -0.8731 C   0  0  0  0  0  0  0  0  0  0  0  0
    3.5454   -6.1439   -1.6014 C   0  0  0  0  0  0  0  0  0  0  0  0
    4.9412   -5.9631   -1.2591 C   0  0  0  0  0  0  0  0  0  0  0  0
    6.0651   -6.4979   -2.0158 C   0  0  0  0  0  0  0  0  0  0  0  0
    7.4682   -6.1979   -1.8736 C   0  0  0  0  0  0  0  0  0  0  0  0
    7.7049   -6.2372   -0.4362 F   0  0  0  0  0  0  0  0  0  0  0  0
    8.0029   -5.0118   -2.2032 F   0  0  0  0  0  0  0  0  0  0  0  0
    8.5949   -7.4970   -2.3603 S   0  0  0  0  0  0  0  0  0  0  0  0
    9.9689   -6.8959   -2.3174 O   0  0  0  0  0  0  0  0  0  0  0  0
    8.3812   -8.0312   -3.7178 O   0  0  0  0  0  0  0  0  0  0  0  0
    8.5917   -8.7264   -1.1942 O   0  0  0  0  0  0  0  0  0  0  0  0
    5.9751   -7.9247   -1.9311 F   0  0  0  0  0  0  0  0  0  0  0  0
    5.7739   -6.3325   -3.4099 F   0  0  0  0  0  0  0  0  0  0  0  0
    5.1154   -4.5418   -1.3654 F   0  0  0  0  0  0  0  0  0  0  0  0
    5.1616   -6.0636    0.1440 F   0  0  0  0  0  0  0  0  0  0  0  0
    3.3462   -5.4360   -2.8507 F   0  0  0  0  0  0  0  0  0  0  0  0
    3.4586   -7.4883   -2.1240 F   0  0  0  0  0  0  0  0  0  0  0  0
    1.0887   -6.7006   -1.1308 C   0  0  0  0  0  0  0  0  0  0  0  0
    0.3144   -6.7039    0.2087 C   0  0  0  0  0  0  0  0  0  0  0  0
   -1.0547   -7.2711    0.0304 C   0  0  0  0  0  0  0  0  0  0  0  0
   -0.9820   -8.6597   -0.0610 F   0  0  0  0  0  0  0  0  0  0  0  0
   -1.7749   -6.6997   -0.9722 F   0  0  0  0  0  0  0  0  0  0  0  0
   -1.7559   -7.0358    1.2210 F   0  0  0  0  0  0  0  0  0  0  0  0
    0.1946   -5.4258    0.7193 F   0  0  0  0  0  0  0  0  0  0  0  0
    0.9793   -7.4619    1.1434 F   0  0  0  0  0  0  0  0  0  0  0  0
    0.2177   -6.2115   -2.0344 F   0  0  0  0  0  0  0  0  0  0  0  0
    1.3853   -8.0505   -1.3329 F   0  0  0  0  0  0  0  0  0  0  0  0
    2.6515   -6.3649    0.4787 F   0  0  0  0  0  0  0  0  0  0  0  0
    1.9776   -4.6098   -0.5756 F   0  0  0  0  0  0  0  0  0  0  0  0
  1  2  1  0
  2  3  1  0
  3  4  1  0
  4  5  1  0
  5  6  1  0
  5  7  1  0
  5  8  1  0
  8  9  2  0
  8 10  2  0
  8 11  1  0
  4 12  1  0
  4 13  1  0
  3 14  1  0
  3 15  1  0
  2 16  1  0
  2 17  1  0
  1 18  1  0
 18 19  1  0
 19 20  1  0
 20 21  1  0
 20 22  1  0
 20 23  1  0
 19 24  1  0
 19 25  1  0
 18 26  1  0
 18 27  1  0
  1 28  1  0
  1 29  1  0
M  END
$$$$
