
     RDKit          3D

  4  3  0  0  0  0  0  0  0  0999 V2000
    2.1899   15.8855   -6.1786 C   0  0  0  0  0  0  0  0  0  0  0  0
    2.1956   16.4357   -7.6088 C   0  0  0  0  0  0  0  0  0  0  0  0
    1.9608   18.1905   -7.5423 Cl  0  0  0  0  0  0  0  0  0  0  0  0
    2.4041   14.1175   -6.3092 Cl  0  0  0  0  0  0  0  0  0  0  0  0
  1  2  1  0
  2  3  1  0
  1  4  1  0
M  END
$$$$
