
     RDKit          3D

  4  3  0  0  0  0  0  0  0  0999 V2000
    7.2683    7.0787   -1.1632 C   0  0  0  0  0  0  0  0  0  0  0  0
    7.7035    7.1928    0.3016 C   0  0  0  0  0  0  0  0  0  0  0  0
    7.8295    5.5628    0.9843 Cl  0  0  0  0  0  0  0  0  0  0  0  0
    7.1990    8.7427   -1.8079 Cl  0  0  0  0  0  0  0  0  0  0  0  0
  1  2  1  0
  2  3  1  0
  1  4  1  0
M  END
$$$$
