
     RDKit          3D

  4  3  0  0  0  0  0  0  0  0999 V2000
   13.5291   10.7764   12.4722 C   0  0  0  0  0  0  0  0  0  0  0  0
   13.6131    9.6564   13.5146 C   0  0  0  0  0  0  0  0  0  0  0  0
   12.0173    9.4514   14.2565 Cl  0  0  0  0  0  0  0  0  0  0  0  0
   14.7386   10.3969   11.2143 Cl  0  0  0  0  0  0  0  0  0  0  0  0
  1  2  1  0
  2  3  1  0
  1  4  1  0
M  END
$$$$
