
     RDKit          3D

  5  4  0  0  0  0  0  0  0  0999 V2000
   -1.4971  -15.7179   -8.4545 C   0  0  0  0  0  0  0  0  0  0  0  0
   -0.8536  -15.6907   -9.8117 C   0  0  0  0  0  0  0  0  0  0  0  0
    0.2587  -15.2755  -10.0400 O   0  0  0  0  0  0  0  0  0  0  0  0
   -1.6510  -16.2002  -10.8457 O   0  0  0  0  0  0  0  0  0  0  0  0
   -1.7309  -14.4023   -8.0935 F   0  0  0  0  0  0  0  0  0  0  0  0
  1  2  1  0
  2  3  2  0
  2  4  1  0
  1  5  1  0
M  END
$$$$
