
     RDKit          3D

  5  4  0  0  0  0  0  0  0  0999 V2000
   -2.7250  -18.5213    3.8395 C   0  0  0  0  0  0  0  0  0  0  0  0
   -2.6296  -19.2001    5.1762 C   0  0  0  0  0  0  0  0  0  0  0  0
   -3.5554  -19.3585    5.9375 O   0  0  0  0  0  0  0  0  0  0  0  0
   -1.3483  -19.6635    5.5050 O   0  0  0  0  0  0  0  0  0  0  0  0
   -4.0564  -18.1950    3.6479 F   0  0  0  0  0  0  0  0  0  0  0  0
  1  2  1  0
  2  3  2  0
  2  4  1  0
  1  5  1  0
M  END
$$$$
