
     RDKit          3D

  5  4  0  0  0  0  0  0  0  0999 V2000
   -9.6700   -5.4911   -4.1449 C   0  0  0  0  0  0  0  0  0  0  0  0
  -10.7952   -6.2508   -4.7880 C   0  0  0  0  0  0  0  0  0  0  0  0
  -11.9697   -6.0483   -4.5845 O   0  0  0  0  0  0  0  0  0  0  0  0
  -10.3881   -7.2517   -5.6807 O   0  0  0  0  0  0  0  0  0  0  0  0
  -10.2265   -4.7269   -3.1339 F   0  0  0  0  0  0  0  0  0  0  0  0
  1  2  1  0
  2  3  2  0
  2  4  1  0
  1  5  1  0
M  END
$$$$
