
     RDKit          3D

  5  4  0  0  0  0  0  0  0  0999 V2000
   -3.7299   16.4216   -2.4683 C   0  0  0  0  0  0  0  0  0  0  0  0
   -4.2305   17.6961   -3.0863 C   0  0  0  0  0  0  0  0  0  0  0  0
   -5.1427   17.7681   -3.8766 O   0  0  0  0  0  0  0  0  0  0  0  0
   -3.5513   18.8506   -2.6736 O   0  0  0  0  0  0  0  0  0  0  0  0
   -4.3426   15.3796   -3.1426 F   0  0  0  0  0  0  0  0  0  0  0  0
  1  2  1  0
  2  3  2  0
  2  4  1  0
  1  5  1  0
M  END
$$$$
