
     RDKit          3D

  5  4  0  0  0  0  0  0  0  0999 V2000
   -2.1253   -1.2089   -5.1308 C   0  0  0  0  0  0  0  0  0  0  0  0
   -1.3857   -0.6712   -6.3227 C   0  0  0  0  0  0  0  0  0  0  0  0
   -0.8530    0.4130   -6.3730 O   0  0  0  0  0  0  0  0  0  0  0  0
   -1.3434   -1.5386   -7.4229 O   0  0  0  0  0  0  0  0  0  0  0  0
   -1.1724   -1.6857   -4.2474 F   0  0  0  0  0  0  0  0  0  0  0  0
  1  2  1  0
  2  3  2  0
  2  4  1  0
  1  5  1  0
M  END
$$$$
