
     RDKit          3D

 25 24  0  0  0  0  0  0  0  0999 V2000
  -11.5216   -2.3126  -13.0108 C   0  0  0  0  0  0  0  0  0  0  0  0
  -12.7148   -1.9175  -12.8800 O   0  0  0  0  0  0  0  0  0  0  0  0
  -10.4302   -1.6879  -12.2188 C   0  0  0  0  0  0  0  0  0  0  0  0
   -9.5099   -0.8517  -12.9961 C   0  0  0  0  0  0  0  0  0  0  0  0
   -8.3458   -0.2315  -12.3596 C   0  0  0  0  0  0  0  0  0  0  0  0
   -7.6514    0.8673  -13.1405 C   0  0  0  0  0  0  0  0  0  0  0  0
   -6.6421    1.4512  -12.2021 C   0  0  0  0  0  0  0  0  0  0  0  0
   -5.9386    2.6759  -12.6294 C   0  0  0  0  0  0  0  0  0  0  0  0
   -5.0013    3.3180  -11.6640 C   0  0  0  0  0  0  0  0  0  0  0  0
   -4.3547    4.4213  -12.1948 F   0  0  0  0  0  0  0  0  0  0  0  0
   -3.9567    2.3895  -11.4638 F   0  0  0  0  0  0  0  0  0  0  0  0
   -5.5359    3.5766  -10.4234 F   0  0  0  0  0  0  0  0  0  0  0  0
   -6.9352    3.6339  -12.8956 F   0  0  0  0  0  0  0  0  0  0  0  0
   -5.2360    2.4205  -13.8060 F   0  0  0  0  0  0  0  0  0  0  0  0
   -5.7207    0.5075  -11.7742 F   0  0  0  0  0  0  0  0  0  0  0  0
   -7.3780    1.7861  -11.0474 F   0  0  0  0  0  0  0  0  0  0  0  0
   -8.5270    1.8582  -13.5241 F   0  0  0  0  0  0  0  0  0  0  0  0
   -7.0248    0.3726  -14.2615 F   0  0  0  0  0  0  0  0  0  0  0  0
   -8.7877    0.3913  -11.1985 F   0  0  0  0  0  0  0  0  0  0  0  0
   -7.3730   -1.1160  -11.9288 F   0  0  0  0  0  0  0  0  0  0  0  0
   -9.0618   -1.5877  -14.0817 F   0  0  0  0  0  0  0  0  0  0  0  0
  -10.2750    0.1758  -13.5699 F   0  0  0  0  0  0  0  0  0  0  0  0
  -10.9665   -1.1416  -11.0810 F   0  0  0  0  0  0  0  0  0  0  0  0
   -9.6764   -2.7856  -11.7525 F   0  0  0  0  0  0  0  0  0  0  0  0
  -11.3055   -3.3422  -13.9202 O   0  0  0  0  0  0  0  0  0  0  0  0
  1  2  2  0
  1  3  1  0
  3  4  1  0
  4  5  1  0
  5  6  1  0
  6  7  1  0
  7  8  1  0
  8  9  1  0
  9 10  1  0
  9 11  1  0
  9 12  1  0
  8 13  1  0
  8 14  1  0
  7 15  1  0
  7 16  1  0
  6 17  1  0
  6 18  1  0
  5 19  1  0
  5 20  1  0
  4 21  1  0
  4 22  1  0
  3 23  1  0
  3 24  1  0
  1 25  1  0
M  END
$$$$
