
     RDKit          3D

 25 24  0  0  0  0  0  0  0  0999 V2000
  -11.6794   -1.9199  -12.3059 C   0  0  0  0  0  0  0  0  0  0  0  0
  -12.6422   -1.6385  -11.5374 O   0  0  0  0  0  0  0  0  0  0  0  0
  -10.2856   -1.5711  -11.9259 C   0  0  0  0  0  0  0  0  0  0  0  0
   -9.7746   -0.3383  -12.5339 C   0  0  0  0  0  0  0  0  0  0  0  0
   -8.4035    0.1083  -12.2776 C   0  0  0  0  0  0  0  0  0  0  0  0
   -8.0530    1.5134  -12.7272 C   0  0  0  0  0  0  0  0  0  0  0  0
   -6.6178    1.7097  -12.3509 C   0  0  0  0  0  0  0  0  0  0  0  0
   -6.0678    3.0760  -12.4398 C   0  0  0  0  0  0  0  0  0  0  0  0
   -4.6390    3.2814  -12.0663 C   0  0  0  0  0  0  0  0  0  0  0  0
   -4.2557    4.6109  -12.1161 F   0  0  0  0  0  0  0  0  0  0  0  0
   -3.8806    2.6818  -13.0952 F   0  0  0  0  0  0  0  0  0  0  0  0
   -4.2543    2.6737  -10.8939 F   0  0  0  0  0  0  0  0  0  0  0  0
   -6.8176    3.8647  -11.5468 F   0  0  0  0  0  0  0  0  0  0  0  0
   -6.2492    3.5657  -13.7321 F   0  0  0  0  0  0  0  0  0  0  0  0
   -5.7797    0.8240  -13.0112 F   0  0  0  0  0  0  0  0  0  0  0  0
   -6.5476    1.3298  -10.9952 F   0  0  0  0  0  0  0  0  0  0  0  0
   -8.8147    2.4641  -12.0856 F   0  0  0  0  0  0  0  0  0  0  0  0
   -8.2108    1.6637  -14.0861 F   0  0  0  0  0  0  0  0  0  0  0  0
   -8.2216    0.1270  -10.9000 F   0  0  0  0  0  0  0  0  0  0  0  0
   -7.4145   -0.7386  -12.7455 F   0  0  0  0  0  0  0  0  0  0  0  0
   -9.9465   -0.4242  -13.9065 F   0  0  0  0  0  0  0  0  0  0  0  0
  -10.6364    0.6989  -12.1440 F   0  0  0  0  0  0  0  0  0  0  0  0
  -10.1511   -1.7042  -10.5677 F   0  0  0  0  0  0  0  0  0  0  0  0
   -9.5138   -2.6274  -12.4544 F   0  0  0  0  0  0  0  0  0  0  0  0
  -12.0035   -2.5599  -13.4972 O   0  0  0  0  0  0  0  0  0  0  0  0
  1  2  2  0
  1  3  1  0
  3  4  1  0
  4  5  1  0
  5  6  1  0
  6  7  1  0
  7  8  1  0
  8  9  1  0
  9 10  1  0
  9 11  1  0
  9 12  1  0
  8 13  1  0
  8 14  1  0
  7 15  1  0
  7 16  1  0
  6 17  1  0
  6 18  1  0
  5 19  1  0
  5 20  1  0
  4 21  1  0
  4 22  1  0
  3 23  1  0
  3 24  1  0
  1 25  1  0
M  END
$$$$
