
     RDKit          3D

 25 24  0  0  0  0  0  0  0  0999 V2000
  -16.5550   -4.8168   -1.7248 C   0  0  0  0  0  0  0  0  0  0  0  0
  -16.9790   -5.0988   -2.8814 O   0  0  0  0  0  0  0  0  0  0  0  0
  -16.0745   -5.8904   -0.8164 C   0  0  0  0  0  0  0  0  0  0  0  0
  -14.6697   -6.2678   -1.0023 C   0  0  0  0  0  0  0  0  0  0  0  0
  -14.0444   -7.2695   -0.1360 C   0  0  0  0  0  0  0  0  0  0  0  0
  -12.5551   -7.4887   -0.3183 C   0  0  0  0  0  0  0  0  0  0  0  0
  -12.1540   -8.4433    0.7624 C   0  0  0  0  0  0  0  0  0  0  0  0
  -10.7210   -8.7719    0.8879 C   0  0  0  0  0  0  0  0  0  0  0  0
  -10.2819   -9.5445    2.0852 C   0  0  0  0  0  0  0  0  0  0  0  0
  -10.5312   -8.8809    3.2745 F   0  0  0  0  0  0  0  0  0  0  0  0
   -8.8722   -9.5874    2.0217 F   0  0  0  0  0  0  0  0  0  0  0  0
  -10.7104  -10.8510    2.1198 F   0  0  0  0  0  0  0  0  0  0  0  0
  -10.0358   -7.5437    0.9481 F   0  0  0  0  0  0  0  0  0  0  0  0
  -10.3027   -9.4639   -0.2476 F   0  0  0  0  0  0  0  0  0  0  0  0
  -12.9008   -9.6113    0.7299 F   0  0  0  0  0  0  0  0  0  0  0  0
  -12.5324   -7.8066    1.9617 F   0  0  0  0  0  0  0  0  0  0  0  0
  -11.8409   -6.3213   -0.1675 F   0  0  0  0  0  0  0  0  0  0  0  0
  -12.2703   -8.0249   -1.5534 F   0  0  0  0  0  0  0  0  0  0  0  0
  -14.1742   -6.8265    1.1748 F   0  0  0  0  0  0  0  0  0  0  0  0
  -14.6531   -8.5119   -0.1429 F   0  0  0  0  0  0  0  0  0  0  0  0
  -14.4960   -6.6715   -2.3169 F   0  0  0  0  0  0  0  0  0  0  0  0
  -13.9121   -5.0903   -0.9016 F   0  0  0  0  0  0  0  0  0  0  0  0
  -16.4846   -5.6052    0.4608 F   0  0  0  0  0  0  0  0  0  0  0  0
  -16.8428   -7.0157   -1.1825 F   0  0  0  0  0  0  0  0  0  0  0  0
  -16.5682   -3.4723   -1.3702 O   0  0  0  0  0  0  0  0  0  0  0  0
  1  2  2  0
  1  3  1  0
  3  4  1  0
  4  5  1  0
  5  6  1  0
  6  7  1  0
  7  8  1  0
  8  9  1  0
  9 10  1  0
  9 11  1  0
  9 12  1  0
  8 13  1  0
  8 14  1  0
  7 15  1  0
  7 16  1  0
  6 17  1  0
  6 18  1  0
  5 19  1  0
  5 20  1  0
  4 21  1  0
  4 22  1  0
  3 23  1  0
  3 24  1  0
  1 25  1  0
M  END
$$$$
