
     RDKit          3D

 29 28  0  0  0  0  0  0  0  0999 V2000
    9.0526   14.0023   -7.7678 C   0  0  0  0  0  0  0  0  0  0  0  0
    9.7662   13.4020   -8.9128 C   0  0  0  0  0  0  0  0  0  0  0  0
   11.2066   13.1032   -8.8038 C   0  0  0  0  0  0  0  0  0  0  0  0
   11.9261   12.7619  -10.0792 C   0  0  0  0  0  0  0  0  0  0  0  0
   13.3868   12.5363   -9.6455 C   0  0  0  0  0  0  0  0  0  0  0  0
   13.4388   11.3537   -8.9433 F   0  0  0  0  0  0  0  0  0  0  0  0
   13.7845   13.5471   -8.8116 F   0  0  0  0  0  0  0  0  0  0  0  0
   14.4496   12.4751  -11.0504 S   0  0  0  0  0  0  0  0  0  0  0  0
   14.4001   13.8496  -11.6824 O   0  0  0  0  0  0  0  0  0  0  0  0
   13.9579   11.4238  -12.0052 O   0  0  0  0  0  0  0  0  0  0  0  0
   16.0230   12.1228  -10.6124 O   0  0  0  0  0  0  0  0  0  0  0  0
   11.4457   11.5960  -10.6140 F   0  0  0  0  0  0  0  0  0  0  0  0
   11.8667   13.7930  -11.0010 F   0  0  0  0  0  0  0  0  0  0  0  0
   11.8243   14.3107   -8.3757 F   0  0  0  0  0  0  0  0  0  0  0  0
   11.5621   12.1776   -7.8457 F   0  0  0  0  0  0  0  0  0  0  0  0
    9.0909   12.2168   -9.2607 F   0  0  0  0  0  0  0  0  0  0  0  0
    9.5413   14.2572  -10.0127 F   0  0  0  0  0  0  0  0  0  0  0  0
    7.5630   14.0355   -7.8295 C   0  0  0  0  0  0  0  0  0  0  0  0
    7.0822   14.8604   -6.6292 C   0  0  0  0  0  0  0  0  0  0  0  0
    5.5732   14.7228   -6.6029 C   0  0  0  0  0  0  0  0  0  0  0  0
    5.1935   13.3951   -6.5666 F   0  0  0  0  0  0  0  0  0  0  0  0
    5.1346   15.2720   -7.8100 F   0  0  0  0  0  0  0  0  0  0  0  0
    5.0182   15.4606   -5.6019 F   0  0  0  0  0  0  0  0  0  0  0  0
    7.4979   16.1656   -6.7214 F   0  0  0  0  0  0  0  0  0  0  0  0
    7.5546   14.2236   -5.4950 F   0  0  0  0  0  0  0  0  0  0  0  0
    6.9953   14.4497   -8.9839 F   0  0  0  0  0  0  0  0  0  0  0  0
    7.0447   12.7537   -7.5859 F   0  0  0  0  0  0  0  0  0  0  0  0
    9.3505   13.1816   -6.6482 F   0  0  0  0  0  0  0  0  0  0  0  0
    9.5417   15.2498   -7.3792 F   0  0  0  0  0  0  0  0  0  0  0  0
  1  2  1  0
  2  3  1  0
  3  4  1  0
  4  5  1  0
  5  6  1  0
  5  7  1  0
  5  8  1  0
  8  9  2  0
  8 10  2  0
  8 11  1  0
  4 12  1  0
  4 13  1  0
  3 14  1  0
  3 15  1  0
  2 16  1  0
  2 17  1  0
  1 18  1  0
 18 19  1  0
 19 20  1  0
 20 21  1  0
 20 22  1  0
 20 23  1  0
 19 24  1  0
 19 25  1  0
 18 26  1  0
 18 27  1  0
  1 28  1  0
  1 29  1  0
M  END
$$$$
