
     RDKit          3D

 29 28  0  0  0  0  0  0  0  0999 V2000
    3.8261   -3.3620    2.7257 C   0  0  0  0  0  0  0  0  0  0  0  0
    4.0319   -3.2429    1.2683 C   0  0  0  0  0  0  0  0  0  0  0  0
    3.3290   -4.1601    0.3514 C   0  0  0  0  0  0  0  0  0  0  0  0
    3.8146   -4.1998   -1.0711 C   0  0  0  0  0  0  0  0  0  0  0  0
    2.9809   -5.3157   -1.7286 C   0  0  0  0  0  0  0  0  0  0  0  0
    1.6603   -5.0980   -1.4078 F   0  0  0  0  0  0  0  0  0  0  0  0
    3.3501   -6.5321   -1.2194 F   0  0  0  0  0  0  0  0  0  0  0  0
    3.2072   -5.3122   -3.4767 S   0  0  0  0  0  0  0  0  0  0  0  0
    2.0234   -6.0526   -4.0612 O   0  0  0  0  0  0  0  0  0  0  0  0
    4.4977   -6.0038   -3.8162 O   0  0  0  0  0  0  0  0  0  0  0  0
    3.2440   -3.7568   -4.0858 O   0  0  0  0  0  0  0  0  0  0  0  0
    3.5455   -3.0198   -1.7123 F   0  0  0  0  0  0  0  0  0  0  0  0
    5.1606   -4.5135   -1.1517 F   0  0  0  0  0  0  0  0  0  0  0  0
    3.5872   -5.4715    0.8374 F   0  0  0  0  0  0  0  0  0  0  0  0
    1.9536   -4.0644    0.3362 F   0  0  0  0  0  0  0  0  0  0  0  0
    3.7190   -1.9204    0.9013 F   0  0  0  0  0  0  0  0  0  0  0  0
    5.4241   -3.3348    1.0556 F   0  0  0  0  0  0  0  0  0  0  0  0
    4.9614   -2.9758    3.6122 C   0  0  0  0  0  0  0  0  0  0  0  0
    4.6095   -3.4537    5.0264 C   0  0  0  0  0  0  0  0  0  0  0  0
    5.7099   -2.9357    5.9304 C   0  0  0  0  0  0  0  0  0  0  0  0
    5.3086   -2.9292    7.2523 F   0  0  0  0  0  0  0  0  0  0  0  0
    5.9212   -1.6145    5.5294 F   0  0  0  0  0  0  0  0  0  0  0  0
    6.8791   -3.6057    5.7345 F   0  0  0  0  0  0  0  0  0  0  0  0
    4.4779   -4.8194    5.0739 F   0  0  0  0  0  0  0  0  0  0  0  0
    3.4532   -2.7881    5.3941 F   0  0  0  0  0  0  0  0  0  0  0  0
    6.2017   -3.3664    3.2437 F   0  0  0  0  0  0  0  0  0  0  0  0
    5.0201   -1.5785    3.7342 F   0  0  0  0  0  0  0  0  0  0  0  0
    2.7875   -2.4497    3.0492 F   0  0  0  0  0  0  0  0  0  0  0  0
    3.3009   -4.5894    3.1309 F   0  0  0  0  0  0  0  0  0  0  0  0
  1  2  1  0
  2  3  1  0
  3  4  1  0
  4  5  1  0
  5  6  1  0
  5  7  1  0
  5  8  1  0
  8  9  2  0
  8 10  2  0
  8 11  1  0
  4 12  1  0
  4 13  1  0
  3 14  1  0
  3 15  1  0
  2 16  1  0
  2 17  1  0
  1 18  1  0
 18 19  1  0
 19 20  1  0
 20 21  1  0
 20 22  1  0
 20 23  1  0
 19 24  1  0
 19 25  1  0
 18 26  1  0
 18 27  1  0
  1 28  1  0
  1 29  1  0
M  END
$$$$
