
     RDKit          3D

 29 28  0  0  0  0  0  0  0  0999 V2000
    6.5226    6.9778  -10.5557 C   0  0  0  0  0  0  0  0  0  0  0  0
    7.0285    5.9174  -11.4502 C   0  0  0  0  0  0  0  0  0  0  0  0
    6.9378    4.5043  -11.0364 C   0  0  0  0  0  0  0  0  0  0  0  0
    7.8538    3.5349  -11.7307 C   0  0  0  0  0  0  0  0  0  0  0  0
    7.6321    2.2024  -10.9906 C   0  0  0  0  0  0  0  0  0  0  0  0
    6.2810    1.9400  -10.9933 F   0  0  0  0  0  0  0  0  0  0  0  0
    8.0426    2.3204   -9.6896 F   0  0  0  0  0  0  0  0  0  0  0  0
    8.5224    0.8998  -11.7764 S   0  0  0  0  0  0  0  0  0  0  0  0
    8.0336    0.8528  -13.2082 O   0  0  0  0  0  0  0  0  0  0  0  0
    8.2437   -0.3961  -11.0680 O   0  0  0  0  0  0  0  0  0  0  0  0
   10.1682    1.1877  -11.7617 O   0  0  0  0  0  0  0  0  0  0  0  0
    7.4893    3.3713  -13.0409 F   0  0  0  0  0  0  0  0  0  0  0  0
    9.1822    3.9108  -11.6277 F   0  0  0  0  0  0  0  0  0  0  0  0
    7.3650    4.4666   -9.6804 F   0  0  0  0  0  0  0  0  0  0  0  0
    5.6710    3.9607  -11.0123 F   0  0  0  0  0  0  0  0  0  0  0  0
    6.3777    6.0606  -12.6902 F   0  0  0  0  0  0  0  0  0  0  0  0
    8.3725    6.2436  -11.7315 F   0  0  0  0  0  0  0  0  0  0  0  0
    6.4511    8.3621  -11.1057 C   0  0  0  0  0  0  0  0  0  0  0  0
    6.0770    9.2887   -9.9422 C   0  0  0  0  0  0  0  0  0  0  0  0
    5.9579   10.6786  -10.5342 C   0  0  0  0  0  0  0  0  0  0  0  0
    5.0511   10.7015  -11.5761 F   0  0  0  0  0  0  0  0  0  0  0  0
    7.2243   10.9671  -11.0480 F   0  0  0  0  0  0  0  0  0  0  0  0
    5.6912   11.6113   -9.5785 F   0  0  0  0  0  0  0  0  0  0  0  0
    7.0011    9.2170   -8.9295 F   0  0  0  0  0  0  0  0  0  0  0  0
    4.8049    8.9238   -9.5373 F   0  0  0  0  0  0  0  0  0  0  0  0
    7.5250    8.8192  -11.7871 F   0  0  0  0  0  0  0  0  0  0  0  0
    5.3633    8.4720  -11.9864 F   0  0  0  0  0  0  0  0  0  0  0  0
    5.1764    6.6337  -10.2645 F   0  0  0  0  0  0  0  0  0  0  0  0
    7.1198    6.9959   -9.2949 F   0  0  0  0  0  0  0  0  0  0  0  0
  1  2  1  0
  2  3  1  0
  3  4  1  0
  4  5  1  0
  5  6  1  0
  5  7  1  0
  5  8  1  0
  8  9  2  0
  8 10  2  0
  8 11  1  0
  4 12  1  0
  4 13  1  0
  3 14  1  0
  3 15  1  0
  2 16  1  0
  2 17  1  0
  1 18  1  0
 18 19  1  0
 19 20  1  0
 20 21  1  0
 20 22  1  0
 20 23  1  0
 19 24  1  0
 19 25  1  0
 18 26  1  0
 18 27  1  0
  1 28  1  0
  1 29  1  0
M  END
$$$$
