
     RDKit          3D

 29 28  0  0  0  0  0  0  0  0999 V2000
    6.4004   -4.8098  -11.7344 C   0  0  0  0  0  0  0  0  0  0  0  0
    6.2287   -3.4828  -12.3590 C   0  0  0  0  0  0  0  0  0  0  0  0
    7.1272   -2.3745  -11.9842 C   0  0  0  0  0  0  0  0  0  0  0  0
    6.9672   -1.0864  -12.7432 C   0  0  0  0  0  0  0  0  0  0  0  0
    8.0805   -0.1764  -12.1909 C   0  0  0  0  0  0  0  0  0  0  0  0
    9.2806   -0.8271  -12.3661 F   0  0  0  0  0  0  0  0  0  0  0  0
    7.8937    0.0231  -10.8491 F   0  0  0  0  0  0  0  0  0  0  0  0
    8.0848    1.3763  -13.0253 S   0  0  0  0  0  0  0  0  0  0  0  0
    6.9191    2.1636  -12.4665 O   0  0  0  0  0  0  0  0  0  0  0  0
    7.9258    1.1516  -14.5027 O   0  0  0  0  0  0  0  0  0  0  0  0
    9.5033    2.2151  -12.7496 O   0  0  0  0  0  0  0  0  0  0  0  0
    7.1853   -1.2779  -14.0819 F   0  0  0  0  0  0  0  0  0  0  0  0
    5.7324   -0.5018  -12.5196 F   0  0  0  0  0  0  0  0  0  0  0  0
    6.7839   -2.0286  -10.6481 F   0  0  0  0  0  0  0  0  0  0  0  0
    8.4709   -2.6778  -11.9256 F   0  0  0  0  0  0  0  0  0  0  0  0
    6.2958   -3.6576  -13.7543 F   0  0  0  0  0  0  0  0  0  0  0  0
    4.8886   -3.1058  -12.1273 F   0  0  0  0  0  0  0  0  0  0  0  0
    5.6969   -5.9619  -12.3681 C   0  0  0  0  0  0  0  0  0  0  0  0
    6.1056   -7.2198  -11.5916 C   0  0  0  0  0  0  0  0  0  0  0  0
    5.4345   -8.3830  -12.2938 C   0  0  0  0  0  0  0  0  0  0  0  0
    5.7265   -9.5796  -11.6683 F   0  0  0  0  0  0  0  0  0  0  0  0
    5.9929   -8.4091  -13.5738 F   0  0  0  0  0  0  0  0  0  0  0  0
    4.0970   -8.1759  -12.4442 F   0  0  0  0  0  0  0  0  0  0  0  0
    5.7587   -7.1237  -10.2668 F   0  0  0  0  0  0  0  0  0  0  0  0
    7.4671   -7.3788  -11.7817 F   0  0  0  0  0  0  0  0  0  0  0  0
    4.3558   -5.8725  -12.5103 F   0  0  0  0  0  0  0  0  0  0  0  0
    6.2051   -6.1830  -13.6580 F   0  0  0  0  0  0  0  0  0  0  0  0
    7.7809   -5.1203  -11.8504 F   0  0  0  0  0  0  0  0  0  0  0  0
    6.1921   -4.8241  -10.3550 F   0  0  0  0  0  0  0  0  0  0  0  0
  1  2  1  0
  2  3  1  0
  3  4  1  0
  4  5  1  0
  5  6  1  0
  5  7  1  0
  5  8  1  0
  8  9  2  0
  8 10  2  0
  8 11  1  0
  4 12  1  0
  4 13  1  0
  3 14  1  0
  3 15  1  0
  2 16  1  0
  2 17  1  0
  1 18  1  0
 18 19  1  0
 19 20  1  0
 20 21  1  0
 20 22  1  0
 20 23  1  0
 19 24  1  0
 19 25  1  0
 18 26  1  0
 18 27  1  0
  1 28  1  0
  1 29  1  0
M  END
$$$$
