
     RDKit          3D

 29 28  0  0  0  0  0  0  0  0999 V2000
    7.9424    1.7936  -12.6638 C   0  0  0  0  0  0  0  0  0  0  0  0
    7.5240    2.9368  -11.8280 C   0  0  0  0  0  0  0  0  0  0  0  0
    7.0224    4.1678  -12.4677 C   0  0  0  0  0  0  0  0  0  0  0  0
    7.4164    5.4714  -11.8304 C   0  0  0  0  0  0  0  0  0  0  0  0
    6.6891    6.5410  -12.6669 C   0  0  0  0  0  0  0  0  0  0  0  0
    5.3362    6.3148  -12.5534 F   0  0  0  0  0  0  0  0  0  0  0  0
    7.0353    6.4133  -13.9855 F   0  0  0  0  0  0  0  0  0  0  0  0
    7.1011    8.1586  -12.1005 S   0  0  0  0  0  0  0  0  0  0  0  0
    8.3079    8.5964  -12.9024 O   0  0  0  0  0  0  0  0  0  0  0  0
    7.4172    8.1099  -10.6320 O   0  0  0  0  0  0  0  0  0  0  0  0
    5.8473    9.2335  -12.3543 O   0  0  0  0  0  0  0  0  0  0  0  0
    6.9600    5.5423  -10.5409 F   0  0  0  0  0  0  0  0  0  0  0  0
    8.7831    5.6846  -11.8863 F   0  0  0  0  0  0  0  0  0  0  0  0
    7.6325    4.2169  -13.7515 F   0  0  0  0  0  0  0  0  0  0  0  0
    5.6692    4.2058  -12.7293 F   0  0  0  0  0  0  0  0  0  0  0  0
    6.5450    2.4712  -10.9300 F   0  0  0  0  0  0  0  0  0  0  0  0
    8.6246    3.2471  -11.0009 F   0  0  0  0  0  0  0  0  0  0  0  0
    8.5570    0.6256  -11.9697 C   0  0  0  0  0  0  0  0  0  0  0  0
    8.9243   -0.3975  -13.0518 C   0  0  0  0  0  0  0  0  0  0  0  0
    9.4268   -1.6237  -12.3167 C   0  0  0  0  0  0  0  0  0  0  0  0
   10.7642   -1.8498  -12.5787 F   0  0  0  0  0  0  0  0  0  0  0  0
    8.6909   -2.6902  -12.8383 F   0  0  0  0  0  0  0  0  0  0  0  0
    9.1509   -1.5600  -10.9847 F   0  0  0  0  0  0  0  0  0  0  0  0
    9.8469    0.1140  -13.9302 F   0  0  0  0  0  0  0  0  0  0  0  0
    7.7409   -0.7661  -13.6675 F   0  0  0  0  0  0  0  0  0  0  0  0
    9.5925    0.8691  -11.1360 F   0  0  0  0  0  0  0  0  0  0  0  0
    7.5897   -0.0355  -11.1962 F   0  0  0  0  0  0  0  0  0  0  0  0
    6.7543    1.2827  -13.2496 F   0  0  0  0  0  0  0  0  0  0  0  0
    8.7105    2.1471  -13.7736 F   0  0  0  0  0  0  0  0  0  0  0  0
  1  2  1  0
  2  3  1  0
  3  4  1  0
  4  5  1  0
  5  6  1  0
  5  7  1  0
  5  8  1  0
  8  9  2  0
  8 10  2  0
  8 11  1  0
  4 12  1  0
  4 13  1  0
  3 14  1  0
  3 15  1  0
  2 16  1  0
  2 17  1  0
  1 18  1  0
 18 19  1  0
 19 20  1  0
 20 21  1  0
 20 22  1  0
 20 23  1  0
 19 24  1  0
 19 25  1  0
 18 26  1  0
 18 27  1  0
  1 28  1  0
  1 29  1  0
M  END
$$$$
