
     RDKit          3D

 52 54  0  0  0  0  0  0  0  0999 V2000
   20.7548  -47.1787   12.6118 C   0  0  0  0  0  0  0  0  0  0  0  0
   19.6076  -46.8938   13.5927 C   0  0  0  0  0  0  0  0  0  0  0  0
   19.1929  -45.4286   13.4475 C   0  0  0  0  0  0  0  0  0  0  0  0
   17.8068  -45.3407   12.8710 C   0  0  0  0  0  0  0  0  0  0  0  0
   16.9488  -44.3454   13.5951 C   0  0  0  0  0  0  0  0  0  0  0  0
   15.5569  -44.1575   13.2341 C   0  0  0  0  0  0  0  0  0  0  0  0
   15.0394  -42.9571   12.7334 N   0  0  0  0  0  0  0  0  0  0  0  0
   15.6244  -41.7271   12.6937 C   0  0  0  0  0  0  0  0  0  0  0  0
   15.3412  -40.7169   13.8219 C   0  0  0  0  0  0  0  0  0  0  0  0
   16.6735  -40.3482   14.3500 C   0  0  0  0  0  0  0  0  0  0  0  0
   16.8386  -39.7864   15.7039 C   0  0  0  0  0  0  0  0  0  0  0  0
   18.0965  -39.9698   16.4266 C   0  0  0  0  0  0  0  0  0  0  0  0
   19.4419  -40.0937   15.8737 C   0  0  0  0  0  0  0  0  0  0  0  0
   20.2383  -41.3773   15.8763 C   0  0  0  0  0  0  0  0  0  0  0  0
   19.7955  -42.4074   14.9420 C   0  0  0  0  0  0  0  0  0  0  0  0
   20.3352  -43.7481   14.9205 C   0  0  0  0  0  0  0  0  0  0  0  0
   21.5291  -44.0886   15.1131 O   0  0  0  0  0  0  0  0  0  0  0  0
   19.4621  -44.8455   14.6536 O   0  0  0  0  0  0  0  0  0  0  0  0
   19.9621  -41.8873   13.5267 C   0  0  0  0  0  0  0  0  0  0  0  0
   20.4945  -41.8638   17.1193 O   0  0  0  0  0  0  0  0  0  0  0  0
   21.7120  -42.4338   17.3671 C   0  0  0  0  0  0  0  0  0  0  0  0
   22.7843  -41.5199   17.9115 C   0  0  0  0  0  0  0  0  0  0  0  0
   24.1015  -42.2897   17.7141 C   0  0  0  0  0  0  0  0  0  0  0  0
   23.8941  -43.7632   17.9644 C   0  0  0  0  0  0  0  0  0  0  0  0
   22.7130  -43.8757   18.8997 C   0  0  0  0  0  0  0  0  0  0  0  0
   21.5625  -43.4560   18.2835 O   0  0  0  0  0  0  0  0  0  0  0  0
   22.6536  -45.2934   19.3897 C   0  0  0  0  0  0  0  0  0  0  0  0
   25.0540  -44.2636   18.5431 O   0  0  0  0  0  0  0  0  0  0  0  0
   24.5627  -42.1612   16.2673 C   0  0  0  0  0  0  0  0  0  0  0  0
   25.1191  -41.8307   18.5059 O   0  0  0  0  0  0  0  0  0  0  0  0
   25.5079  -40.5299   18.3004 C   0  0  0  0  0  0  0  0  0  0  0  0
   19.8482  -39.1039   14.8143 C   0  0  0  0  0  0  0  0  0  0  0  0
   18.1699  -38.7964   17.2458 O   0  0  0  0  0  0  0  0  0  0  0  0
   17.4575  -38.7849   18.3777 C   0  0  0  0  0  0  0  0  0  0  0  0
   17.3371  -37.3860   18.8823 C   0  0  0  0  0  0  0  0  0  0  0  0
   16.3162  -37.3691   20.0106 C   0  0  0  0  0  0  0  0  0  0  0  0
   16.8338  -38.3080   21.0762 C   0  0  0  0  0  0  0  0  0  0  0  0
   17.3084  -39.6106   20.4744 C   0  0  0  0  0  0  0  0  0  0  0  0
   18.2106  -39.4276   19.4473 O   0  0  0  0  0  0  0  0  0  0  0  0
   16.0902  -40.3993   20.1216 C   0  0  0  0  0  0  0  0  0  0  0  0
   16.1795  -36.0385   20.5683 N   0  0  0  0  0  0  0  0  0  0  0  0
   17.2462  -35.6811   21.4522 C   0  0  0  0  0  0  0  0  0  0  0  0
   16.1405  -35.0345   19.5215 C   0  0  0  0  0  0  0  0  0  0  0  0
   16.8242  -36.5692   17.8885 O   0  0  0  0  0  0  0  0  0  0  0  0
   15.7602  -40.5533   16.5024 C   0  0  0  0  0  0  0  0  0  0  0  0
   16.3668  -38.4797   15.5866 O   0  0  0  0  0  0  0  0  0  0  0  0
   14.5409  -39.5316   13.3482 C   0  0  0  0  0  0  0  0  0  0  0  0
   13.8928  -43.0692   11.8741 C   0  0  0  0  0  0  0  0  0  0  0  0
   14.9142  -45.3367   12.4780 C   0  0  0  0  0  0  0  0  0  0  0  0
   17.1138  -44.7029   14.9604 O   0  0  0  0  0  0  0  0  0  0  0  0
   17.9436  -45.0221   11.3981 C   0  0  0  0  0  0  0  0  0  0  0  0
   17.2066  -46.5954   12.9604 O   0  0  0  0  0  0  0  0  0  0  0  0
  1  2  1  0
  2  3  1  0
  3  4  1  0
  4  5  1  0
  5  6  1  0
  6  7  1  0
  7  8  1  0
  8  9  1  0
  9 10  1  0
 10 11  1  0
 11 12  1  0
 12 13  1  0
 13 14  1  0
 14 15  1  0
 15 16  1  0
 16 17  2  0
 16 18  1  0
 15 19  1  0
 14 20  1  0
 20 21  1  0
 21 22  1  0
 22 23  1  0
 23 24  1  0
 24 25  1  0
 25 26  1  0
 25 27  1  0
 24 28  1  0
 23 29  1  0
 23 30  1  0
 30 31  1  0
 13 32  1  0
 12 33  1  0
 33 34  1  0
 34 35  1  0
 35 36  1  0
 36 37  1  0
 37 38  1  0
 38 39  1  0
 38 40  1  0
 36 41  1  0
 41 42  1  0
 41 43  1  0
 35 44  1  0
 11 45  1  0
 11 46  1  0
  9 47  1  0
  7 48  1  0
  6 49  1  0
  5 50  1  0
  4 51  1  0
  4 52  1  0
 18  3  1  0
 26 21  1  0
 39 34  1  0
M  END
$$$$
