
     RDKit          3D

 52 54  0  0  0  0  0  0  0  0999 V2000
    5.2027  -53.3870   -2.3315 C   0  0  0  0  0  0  0  0  0  0  0  0
    5.3064  -51.9035   -2.7159 C   0  0  0  0  0  0  0  0  0  0  0  0
    6.1490  -51.1832   -1.6618 C   0  0  0  0  0  0  0  0  0  0  0  0
    7.6097  -51.3101   -1.9959 C   0  0  0  0  0  0  0  0  0  0  0  0
    8.3442  -50.0099   -1.8502 C   0  0  0  0  0  0  0  0  0  0  0  0
    9.7508  -49.9054   -2.1875 C   0  0  0  0  0  0  0  0  0  0  0  0
   10.7510  -49.5929   -1.2594 N   0  0  0  0  0  0  0  0  0  0  0  0
   10.6173  -49.1266    0.0139 C   0  0  0  0  0  0  0  0  0  0  0  0
   10.6934  -47.6105    0.2772 C   0  0  0  0  0  0  0  0  0  0  0  0
    9.4314  -47.2785    0.9749 C   0  0  0  0  0  0  0  0  0  0  0  0
    8.8974  -45.9036    0.9916 C   0  0  0  0  0  0  0  0  0  0  0  0
    7.4601  -45.6757    1.1354 C   0  0  0  0  0  0  0  0  0  0  0  0
    6.4862  -46.4961    1.8493 C   0  0  0  0  0  0  0  0  0  0  0  0
    5.4242  -47.3266    1.1677 C   0  0  0  0  0  0  0  0  0  0  0  0
    5.8912  -48.5310    0.4885 C   0  0  0  0  0  0  0  0  0  0  0  0
    5.0447  -49.3538   -0.3455 C   0  0  0  0  0  0  0  0  0  0  0  0
    3.8342  -49.6323   -0.1571 O   0  0  0  0  0  0  0  0  0  0  0  0
    5.5916  -49.9431   -1.5252 O   0  0  0  0  0  0  0  0  0  0  0  0
    6.4767  -49.4773    1.5196 C   0  0  0  0  0  0  0  0  0  0  0  0
    4.5532  -46.5998    0.4191 O   0  0  0  0  0  0  0  0  0  0  0  0
    3.3442  -46.2588    0.9583 C   0  0  0  0  0  0  0  0  0  0  0  0
    2.7399  -44.9577    0.4857 C   0  0  0  0  0  0  0  0  0  0  0  0
    1.6394  -44.6343    1.5107 C   0  0  0  0  0  0  0  0  0  0  0  0
    0.9435  -45.8976    1.9540 C   0  0  0  0  0  0  0  0  0  0  0  0
    1.1055  -46.8923    0.8284 C   0  0  0  0  0  0  0  0  0  0  0  0
    2.4212  -47.2470    0.6781 O   0  0  0  0  0  0  0  0  0  0  0  0
    0.1953  -48.0521    1.1111 C   0  0  0  0  0  0  0  0  0  0  0  0
   -0.3934  -45.5910    2.1768 O   0  0  0  0  0  0  0  0  0  0  0  0
    2.2616  -44.0259    2.7617 C   0  0  0  0  0  0  0  0  0  0  0  0
    0.7125  -43.7418    1.0443 O   0  0  0  0  0  0  0  0  0  0  0  0
    1.1518  -42.4549    0.8539 C   0  0  0  0  0  0  0  0  0  0  0  0
    6.8547  -46.9599    3.2336 C   0  0  0  0  0  0  0  0  0  0  0  0
    7.4014  -44.4118    1.8080 O   0  0  0  0  0  0  0  0  0  0  0  0
    6.6829  -43.4386    1.2373 C   0  0  0  0  0  0  0  0  0  0  0  0
    6.2881  -42.4344    2.2677 C   0  0  0  0  0  0  0  0  0  0  0  0
    5.7049  -41.2217    1.5571 C   0  0  0  0  0  0  0  0  0  0  0  0
    4.5138  -41.7145    0.7676 C   0  0  0  0  0  0  0  0  0  0  0  0
    4.8458  -42.9779    0.0075 C   0  0  0  0  0  0  0  0  0  0  0  0
    5.3896  -43.9581    0.8112 O   0  0  0  0  0  0  0  0  0  0  0  0
    5.6802  -42.5772   -1.1646 C   0  0  0  0  0  0  0  0  0  0  0  0
    5.2685  -40.2207    2.5099 N   0  0  0  0  0  0  0  0  0  0  0  0
    3.9297  -39.7690    2.2856 C   0  0  0  0  0  0  0  0  0  0  0  0
    5.3228  -40.7319    3.8668 C   0  0  0  0  0  0  0  0  0  0  0  0
    7.4114  -41.9820    2.9395 O   0  0  0  0  0  0  0  0  0  0  0  0
    9.2818  -45.3937   -0.4159 C   0  0  0  0  0  0  0  0  0  0  0  0
    9.7320  -45.2285    1.8811 O   0  0  0  0  0  0  0  0  0  0  0  0
   11.9230  -47.2207    1.0556 C   0  0  0  0  0  0  0  0  0  0  0  0
   12.0623  -50.1098   -1.5407 C   0  0  0  0  0  0  0  0  0  0  0  0
   10.2747  -50.9938   -3.1446 C   0  0  0  0  0  0  0  0  0  0  0  0
    7.5394  -49.0955   -2.5817 O   0  0  0  0  0  0  0  0  0  0  0  0
    8.1861  -52.4006   -1.1195 C   0  0  0  0  0  0  0  0  0  0  0  0
    7.7291  -51.7443   -3.3149 O   0  0  0  0  0  0  0  0  0  0  0  0
  1  2  1  0
  2  3  1  0
  3  4  1  0
  4  5  1  0
  5  6  1  0
  6  7  1  0
  7  8  1  0
  8  9  1  0
  9 10  1  0
 10 11  1  0
 11 12  1  0
 12 13  1  0
 13 14  1  0
 14 15  1  0
 15 16  1  0
 16 17  2  0
 16 18  1  0
 15 19  1  0
 14 20  1  0
 20 21  1  0
 21 22  1  0
 22 23  1  0
 23 24  1  0
 24 25  1  0
 25 26  1  0
 25 27  1  0
 24 28  1  0
 23 29  1  0
 23 30  1  0
 30 31  1  0
 13 32  1  0
 12 33  1  0
 33 34  1  0
 34 35  1  0
 35 36  1  0
 36 37  1  0
 37 38  1  0
 38 39  1  0
 38 40  1  0
 36 41  1  0
 41 42  1  0
 41 43  1  0
 35 44  1  0
 11 45  1  0
 11 46  1  0
  9 47  1  0
  7 48  1  0
  6 49  1  0
  5 50  1  0
  4 51  1  0
  4 52  1  0
 18  3  1  0
 26 21  1  0
 39 34  1  0
M  END
$$$$
