
     RDKit          3D

 52 54  0  0  0  0  0  0  0  0999 V2000
   28.2290  -70.6781   25.1426 C   0  0  0  0  0  0  0  0  0  0  0  0
   29.0537  -69.6467   25.9269 C   0  0  0  0  0  0  0  0  0  0  0  0
   30.1359  -70.3848   26.7168 C   0  0  0  0  0  0  0  0  0  0  0  0
   31.3446  -70.6067   25.8503 C   0  0  0  0  0  0  0  0  0  0  0  0
   32.6252  -70.2829   26.5620 C   0  0  0  0  0  0  0  0  0  0  0  0
   33.9014  -70.3693   25.8786 C   0  0  0  0  0  0  0  0  0  0  0  0
   34.9196  -71.2577   26.2439 N   0  0  0  0  0  0  0  0  0  0  0  0
   35.0262  -72.0156   27.3713 C   0  0  0  0  0  0  0  0  0  0  0  0
   35.8407  -71.4847   28.5666 C   0  0  0  0  0  0  0  0  0  0  0  0
   34.9038  -71.5123   29.7116 C   0  0  0  0  0  0  0  0  0  0  0  0
   35.1197  -70.6737   30.9058 C   0  0  0  0  0  0  0  0  0  0  0  0
   33.9823  -70.2532   31.7231 C   0  0  0  0  0  0  0  0  0  0  0  0
   32.7258  -70.9613   31.9485 C   0  0  0  0  0  0  0  0  0  0  0  0
   31.3962  -70.5168   31.3858 C   0  0  0  0  0  0  0  0  0  0  0  0
   31.2105  -70.7120   29.9515 C   0  0  0  0  0  0  0  0  0  0  0  0
   30.0729  -70.2031   29.2192 C   0  0  0  0  0  0  0  0  0  0  0  0
   28.8820  -70.1415   29.6145 O   0  0  0  0  0  0  0  0  0  0  0  0
   30.2639  -69.7048   27.8952 O   0  0  0  0  0  0  0  0  0  0  0  0
   31.2450  -72.1989   29.6524 C   0  0  0  0  0  0  0  0  0  0  0  0
   31.0032  -69.2863   31.8085 O   0  0  0  0  0  0  0  0  0  0  0  0
   29.8985  -69.1843   32.6071 C   0  0  0  0  0  0  0  0  0  0  0  0
   30.1509  -69.0439   34.0897 C   0  0  0  0  0  0  0  0  0  0  0  0
   28.7987  -69.3530   34.7548 C   0  0  0  0  0  0  0  0  0  0  0  0
   27.6650  -68.7969   33.9289 C   0  0  0  0  0  0  0  0  0  0  0  0
   28.2367  -67.6408   33.1419 C   0  0  0  0  0  0  0  0  0  0  0  0
   29.1573  -68.0827   32.2273 O   0  0  0  0  0  0  0  0  0  0  0  0
   27.0872  -66.8939   32.5300 C   0  0  0  0  0  0  0  0  0  0  0  0
   26.6684  -68.3780   34.8018 O   0  0  0  0  0  0  0  0  0  0  0  0
   28.5857  -70.8608   34.8154 C   0  0  0  0  0  0  0  0  0  0  0  0
   28.7060  -68.8792   36.0355 O   0  0  0  0  0  0  0  0  0  0  0  0
   29.8320  -69.0039   36.8113 C   0  0  0  0  0  0  0  0  0  0  0  0
   32.8082  -72.4270   32.2835 C   0  0  0  0  0  0  0  0  0  0  0  0
   34.5523  -70.1423   33.0332 O   0  0  0  0  0  0  0  0  0  0  0  0
   35.2126  -69.0174   33.3289 C   0  0  0  0  0  0  0  0  0  0  0  0
   35.9931  -69.2077   34.5861 C   0  0  0  0  0  0  0  0  0  0  0  0
   36.9274  -68.0186   34.7555 C   0  0  0  0  0  0  0  0  0  0  0  0
   36.0531  -66.7872   34.8182 C   0  0  0  0  0  0  0  0  0  0  0  0
   35.0039  -66.8049   33.7304 C   0  0  0  0  0  0  0  0  0  0  0  0
   34.2712  -67.9733   33.7134 O   0  0  0  0  0  0  0  0  0  0  0  0
   35.6945  -66.4654   32.4505 C   0  0  0  0  0  0  0  0  0  0  0  0
   37.6912  -68.1281   35.9822 N   0  0  0  0  0  0  0  0  0  0  0  0
   37.7102  -66.9203   36.7488 C   0  0  0  0  0  0  0  0  0  0  0  0
   37.1552  -69.1680   36.8406 C   0  0  0  0  0  0  0  0  0  0  0  0
   36.8072  -70.3221   34.4711 O   0  0  0  0  0  0  0  0  0  0  0  0
   35.7145  -69.3869   30.2901 C   0  0  0  0  0  0  0  0  0  0  0  0
   36.1735  -71.2989   31.5708 O   0  0  0  0  0  0  0  0  0  0  0  0
   37.0973  -72.2799   28.8077 C   0  0  0  0  0  0  0  0  0  0  0  0
   35.8053  -71.6759   25.1920 C   0  0  0  0  0  0  0  0  0  0  0  0
   33.8242  -70.2972   24.3411 C   0  0  0  0  0  0  0  0  0  0  0  0
   32.3825  -68.9908   27.1010 O   0  0  0  0  0  0  0  0  0  0  0  0
   31.3009  -72.0384   25.3625 C   0  0  0  0  0  0  0  0  0  0  0  0
   31.2416  -69.7915   24.7245 O   0  0  0  0  0  0  0  0  0  0  0  0
  1  2  1  0
  2  3  1  0
  3  4  1  0
  4  5  1  0
  5  6  1  0
  6  7  1  0
  7  8  1  0
  8  9  1  0
  9 10  1  0
 10 11  1  0
 11 12  1  0
 12 13  1  0
 13 14  1  0
 14 15  1  0
 15 16  1  0
 16 17  2  0
 16 18  1  0
 15 19  1  0
 14 20  1  0
 20 21  1  0
 21 22  1  0
 22 23  1  0
 23 24  1  0
 24 25  1  0
 25 26  1  0
 25 27  1  0
 24 28  1  0
 23 29  1  0
 23 30  1  0
 30 31  1  0
 13 32  1  0
 12 33  1  0
 33 34  1  0
 34 35  1  0
 35 36  1  0
 36 37  1  0
 37 38  1  0
 38 39  1  0
 38 40  1  0
 36 41  1  0
 41 42  1  0
 41 43  1  0
 35 44  1  0
 11 45  1  0
 11 46  1  0
  9 47  1  0
  7 48  1  0
  6 49  1  0
  5 50  1  0
  4 51  1  0
  4 52  1  0
 18  3  1  0
 26 21  1  0
 39 34  1  0
M  END
$$$$
