
     RDKit          3D

 52 54  0  0  0  0  0  0  0  0999 V2000
   12.6786  -66.2234   29.1086 C   0  0  0  0  0  0  0  0  0  0  0  0
   14.0019  -65.6747   29.6627 C   0  0  0  0  0  0  0  0  0  0  0  0
   14.4067  -66.5103   30.8784 C   0  0  0  0  0  0  0  0  0  0  0  0
   15.6439  -67.3063   30.5670 C   0  0  0  0  0  0  0  0  0  0  0  0
   16.6537  -67.2499   31.6754 C   0  0  0  0  0  0  0  0  0  0  0  0
   17.9434  -67.8996   31.5437 C   0  0  0  0  0  0  0  0  0  0  0  0
   18.3694  -68.9534   32.3608 N   0  0  0  0  0  0  0  0  0  0  0  0
   17.8137  -69.4149   33.5162 C   0  0  0  0  0  0  0  0  0  0  0  0
   18.3458  -68.9047   34.8691 C   0  0  0  0  0  0  0  0  0  0  0  0
   17.1603  -68.3584   35.5661 C   0  0  0  0  0  0  0  0  0  0  0  0
   17.2920  -67.3747   36.6574 C   0  0  0  0  0  0  0  0  0  0  0  0
   16.2086  -66.4312   36.9300 C   0  0  0  0  0  0  0  0  0  0  0  0
   14.7753  -66.6252   36.7317 C   0  0  0  0  0  0  0  0  0  0  0  0
   13.9713  -65.9258   35.6610 C   0  0  0  0  0  0  0  0  0  0  0  0
   14.1891  -66.3860   34.2934 C   0  0  0  0  0  0  0  0  0  0  0  0
   13.6299  -65.7293   33.1335 C   0  0  0  0  0  0  0  0  0  0  0  0
   12.4957  -65.1980   33.0357 O   0  0  0  0  0  0  0  0  0  0  0  0
   14.4062  -65.6477   31.9383 O   0  0  0  0  0  0  0  0  0  0  0  0
   13.7421  -67.8319   34.1875 C   0  0  0  0  0  0  0  0  0  0  0  0
   13.9696  -64.5710   35.7705 O   0  0  0  0  0  0  0  0  0  0  0  0
   12.8035  -63.9364   36.0963 C   0  0  0  0  0  0  0  0  0  0  0  0
   11.6238  -64.1889   35.1874 C   0  0  0  0  0  0  0  0  0  0  0  0
   10.6128  -63.0813   35.5304 C   0  0  0  0  0  0  0  0  0  0  0  0
   10.6248  -62.7964   37.0121 C   0  0  0  0  0  0  0  0  0  0  0  0
   11.1048  -64.0603   37.6865 C   0  0  0  0  0  0  0  0  0  0  0  0
   12.4125  -64.3170   37.3649 O   0  0  0  0  0  0  0  0  0  0  0  0
   10.8632  -63.9099   39.1605 C   0  0  0  0  0  0  0  0  0  0  0  0
    9.3281  -62.4741   37.3938 O   0  0  0  0  0  0  0  0  0  0  0  0
   11.0152  -61.7833   34.8408 C   0  0  0  0  0  0  0  0  0  0  0  0
    9.3364  -63.3730   35.1317 O   0  0  0  0  0  0  0  0  0  0  0  0
    9.1838  -63.7640   33.8244 C   0  0  0  0  0  0  0  0  0  0  0  0
   14.1774  -67.9164   37.2242 C   0  0  0  0  0  0  0  0  0  0  0  0
   16.3309  -66.2007   38.3390 O   0  0  0  0  0  0  0  0  0  0  0  0
   16.1200  -64.9573   38.7846 C   0  0  0  0  0  0  0  0  0  0  0  0
   16.1130  -64.9518   40.2765 C   0  0  0  0  0  0  0  0  0  0  0  0
   16.1333  -63.5062   40.7511 C   0  0  0  0  0  0  0  0  0  0  0  0
   14.8985  -62.8465   40.1811 C   0  0  0  0  0  0  0  0  0  0  0  0
   14.7234  -63.1839   38.7183 C   0  0  0  0  0  0  0  0  0  0  0  0
   14.7580  -64.5411   38.4749 O   0  0  0  0  0  0  0  0  0  0  0  0
   15.7221  -62.3732   37.9595 C   0  0  0  0  0  0  0  0  0  0  0  0
   16.0921  -63.4332   42.1979 N   0  0  0  0  0  0  0  0  0  0  0  0
   15.5294  -62.2130   42.6889 C   0  0  0  0  0  0  0  0  0  0  0  0
   15.3052  -64.5182   42.7537 C   0  0  0  0  0  0  0  0  0  0  0  0
   17.2771  -65.5293   40.7553 O   0  0  0  0  0  0  0  0  0  0  0  0
   18.4973  -66.5309   36.1841 C   0  0  0  0  0  0  0  0  0  0  0  0
   17.7551  -68.1273   37.7357 O   0  0  0  0  0  0  0  0  0  0  0  0
   19.0536  -69.9788   35.6533 C   0  0  0  0  0  0  0  0  0  0  0  0
   19.3096  -69.8701   31.7765 C   0  0  0  0  0  0  0  0  0  0  0  0
   18.3908  -68.1739   30.0947 C   0  0  0  0  0  0  0  0  0  0  0  0
   16.7693  -65.8591   31.9425 O   0  0  0  0  0  0  0  0  0  0  0  0
   15.2100  -68.7212   30.2522 C   0  0  0  0  0  0  0  0  0  0  0  0
   16.2242  -66.7928   29.4085 O   0  0  0  0  0  0  0  0  0  0  0  0
  1  2  1  0
  2  3  1  0
  3  4  1  0
  4  5  1  0
  5  6  1  0
  6  7  1  0
  7  8  1  0
  8  9  1  0
  9 10  1  0
 10 11  1  0
 11 12  1  0
 12 13  1  0
 13 14  1  0
 14 15  1  0
 15 16  1  0
 16 17  2  0
 16 18  1  0
 15 19  1  0
 14 20  1  0
 20 21  1  0
 21 22  1  0
 22 23  1  0
 23 24  1  0
 24 25  1  0
 25 26  1  0
 25 27  1  0
 24 28  1  0
 23 29  1  0
 23 30  1  0
 30 31  1  0
 13 32  1  0
 12 33  1  0
 33 34  1  0
 34 35  1  0
 35 36  1  0
 36 37  1  0
 37 38  1  0
 38 39  1  0
 38 40  1  0
 36 41  1  0
 41 42  1  0
 41 43  1  0
 35 44  1  0
 11 45  1  0
 11 46  1  0
  9 47  1  0
  7 48  1  0
  6 49  1  0
  5 50  1  0
  4 51  1  0
  4 52  1  0
 18  3  1  0
 26 21  1  0
 39 34  1  0
M  END
$$$$
