
     RDKit          3D

 52 54  0  0  0  0  0  0  0  0999 V2000
   -0.2493  -47.5863    3.5807 C   0  0  0  0  0  0  0  0  0  0  0  0
    0.2251  -47.5596    2.1200 C   0  0  0  0  0  0  0  0  0  0  0  0
    1.3746  -48.5562    1.9612 C   0  0  0  0  0  0  0  0  0  0  0  0
    0.8295  -49.9348    1.7088 C   0  0  0  0  0  0  0  0  0  0  0  0
    1.5512  -50.6402    0.5985 C   0  0  0  0  0  0  0  0  0  0  0  0
    1.1354  -51.9573    0.1565 C   0  0  0  0  0  0  0  0  0  0  0  0
    1.9390  -53.0993    0.2549 N   0  0  0  0  0  0  0  0  0  0  0  0
    3.2670  -53.1849    0.5479 C   0  0  0  0  0  0  0  0  0  0  0  0
    4.2926  -53.2577   -0.5995 C   0  0  0  0  0  0  0  0  0  0  0  0
    5.2235  -52.1339   -0.3539 C   0  0  0  0  0  0  0  0  0  0  0  0
    6.0511  -51.5669   -1.4352 C   0  0  0  0  0  0  0  0  0  0  0  0
    6.4893  -50.1732   -1.3706 C   0  0  0  0  0  0  0  0  0  0  0  0
    6.7733  -49.3736   -0.1827 C   0  0  0  0  0  0  0  0  0  0  0  0
    5.9039  -48.2331    0.2920 C   0  0  0  0  0  0  0  0  0  0  0  0
    4.6266  -48.6077    0.8904 C   0  0  0  0  0  0  0  0  0  0  0  0
    3.6052  -47.6509    1.2515 C   0  0  0  0  0  0  0  0  0  0  0  0
    3.7767  -46.5050    1.7372 O   0  0  0  0  0  0  0  0  0  0  0  0
    2.2325  -47.9924    1.0593 O   0  0  0  0  0  0  0  0  0  0  0  0
    4.8939  -49.4025    2.1546 C   0  0  0  0  0  0  0  0  0  0  0  0
    5.7920  -47.2165   -0.6032 O   0  0  0  0  0  0  0  0  0  0  0  0
    6.3668  -46.0116   -0.3091 C   0  0  0  0  0  0  0  0  0  0  0  0
    5.4226  -44.8695   -0.0163 C   0  0  0  0  0  0  0  0  0  0  0  0
    6.2868  -43.6013   -0.1227 C   0  0  0  0  0  0  0  0  0  0  0  0
    7.6676  -43.8558    0.4299 C   0  0  0  0  0  0  0  0  0  0  0  0
    7.5275  -44.9807    1.4287 C   0  0  0  0  0  0  0  0  0  0  0  0
    7.1768  -46.1480    0.8011 O   0  0  0  0  0  0  0  0  0  0  0  0
    8.8143  -45.0705    2.1968 C   0  0  0  0  0  0  0  0  0  0  0  0
    8.1054  -42.6849    1.0366 O   0  0  0  0  0  0  0  0  0  0  0  0
    6.4737  -43.2251   -1.5875 C   0  0  0  0  0  0  0  0  0  0  0  0
    5.7356  -42.5180    0.5065 O   0  0  0  0  0  0  0  0  0  0  0  0
    4.4034  -42.2892    0.2649 C   0  0  0  0  0  0  0  0  0  0  0  0
    7.6239  -50.0036    0.8882 C   0  0  0  0  0  0  0  0  0  0  0  0
    7.7376  -50.1965   -2.0739 O   0  0  0  0  0  0  0  0  0  0  0  0
    7.8969  -49.3331   -3.0829 C   0  0  0  0  0  0  0  0  0  0  0  0
    9.2649  -49.4804   -3.6599 C   0  0  0  0  0  0  0  0  0  0  0  0
    9.3281  -48.6832   -4.9545 C   0  0  0  0  0  0  0  0  0  0  0  0
    9.0223  -47.2476   -4.5937 C   0  0  0  0  0  0  0  0  0  0  0  0
    7.8214  -47.1566   -3.6805 C   0  0  0  0  0  0  0  0  0  0  0  0
    7.9307  -47.9689   -2.5711 O   0  0  0  0  0  0  0  0  0  0  0  0
    6.6112  -47.3876   -4.5245 C   0  0  0  0  0  0  0  0  0  0  0  0
   10.6482  -48.7584   -5.5476 N   0  0  0  0  0  0  0  0  0  0  0  0
   11.0444  -47.5516   -6.2059 C   0  0  0  0  0  0  0  0  0  0  0  0
   11.6564  -49.0460   -4.5444 C   0  0  0  0  0  0  0  0  0  0  0  0
    9.4884  -50.8012   -4.0112 O   0  0  0  0  0  0  0  0  0  0  0  0
    5.1035  -51.6709   -2.6518 C   0  0  0  0  0  0  0  0  0  0  0  0
    7.0406  -52.5270   -1.6413 O   0  0  0  0  0  0  0  0  0  0  0  0
    4.9822  -54.5951   -0.6736 C   0  0  0  0  0  0  0  0  0  0  0  0
    1.2480  -54.3536    0.3774 C   0  0  0  0  0  0  0  0  0  0  0  0
   -0.3181  -52.3334    0.5042 C   0  0  0  0  0  0  0  0  0  0  0  0
    1.5456  -49.6857   -0.4540 O   0  0  0  0  0  0  0  0  0  0  0  0
    0.8918  -50.6972    3.0144 C   0  0  0  0  0  0  0  0  0  0  0  0
   -0.5172  -49.8257    1.3668 O   0  0  0  0  0  0  0  0  0  0  0  0
  1  2  1  0
  2  3  1  0
  3  4  1  0
  4  5  1  0
  5  6  1  0
  6  7  1  0
  7  8  1  0
  8  9  1  0
  9 10  1  0
 10 11  1  0
 11 12  1  0
 12 13  1  0
 13 14  1  0
 14 15  1  0
 15 16  1  0
 16 17  2  0
 16 18  1  0
 15 19  1  0
 14 20  1  0
 20 21  1  0
 21 22  1  0
 22 23  1  0
 23 24  1  0
 24 25  1  0
 25 26  1  0
 25 27  1  0
 24 28  1  0
 23 29  1  0
 23 30  1  0
 30 31  1  0
 13 32  1  0
 12 33  1  0
 33 34  1  0
 34 35  1  0
 35 36  1  0
 36 37  1  0
 37 38  1  0
 38 39  1  0
 38 40  1  0
 36 41  1  0
 41 42  1  0
 41 43  1  0
 35 44  1  0
 11 45  1  0
 11 46  1  0
  9 47  1  0
  7 48  1  0
  6 49  1  0
  5 50  1  0
  4 51  1  0
  4 52  1  0
 18  3  1  0
 26 21  1  0
 39 34  1  0
M  END
$$$$
