
     RDKit          3D

 52 54  0  0  0  0  0  0  0  0999 V2000
    3.5314  -41.7360   35.0720 C   0  0  0  0  0  0  0  0  0  0  0  0
    4.9387  -41.1282   34.9752 C   0  0  0  0  0  0  0  0  0  0  0  0
    5.9623  -42.2052   35.3386 C   0  0  0  0  0  0  0  0  0  0  0  0
    6.2635  -43.0560   34.1357 C   0  0  0  0  0  0  0  0  0  0  0  0
    7.7334  -43.3035   33.9644 C   0  0  0  0  0  0  0  0  0  0  0  0
    8.2372  -44.0487   32.8270 C   0  0  0  0  0  0  0  0  0  0  0  0
    8.9124  -45.2701   32.9359 N   0  0  0  0  0  0  0  0  0  0  0  0
    9.4130  -45.8712   34.0516 C   0  0  0  0  0  0  0  0  0  0  0  0
   10.8952  -45.6692   34.4204 C   0  0  0  0  0  0  0  0  0  0  0  0
   10.8779  -45.1372   35.8011 C   0  0  0  0  0  0  0  0  0  0  0  0
   12.0200  -44.3837   36.3522 C   0  0  0  0  0  0  0  0  0  0  0  0
   11.8070  -43.3976   37.4107 C   0  0  0  0  0  0  0  0  0  0  0  0
   10.7859  -43.4040   38.4541 C   0  0  0  0  0  0  0  0  0  0  0  0
    9.6195  -42.4449   38.4965 C   0  0  0  0  0  0  0  0  0  0  0  0
    8.5671  -42.6728   37.5114 C   0  0  0  0  0  0  0  0  0  0  0  0
    7.4621  -41.7648   37.3021 C   0  0  0  0  0  0  0  0  0  0  0  0
    6.8417  -41.1104   38.1769 O   0  0  0  0  0  0  0  0  0  0  0  0
    6.9787  -41.5510   35.9761 O   0  0  0  0  0  0  0  0  0  0  0  0
    7.9290  -44.0223   37.7817 C   0  0  0  0  0  0  0  0  0  0  0  0
    9.9838  -41.1389   38.5905 O   0  0  0  0  0  0  0  0  0  0  0  0
    9.5756  -40.4162   39.6766 C   0  0  0  0  0  0  0  0  0  0  0  0
   10.6547  -39.9835   40.6408 C   0  0  0  0  0  0  0  0  0  0  0  0
    9.9043  -39.5683   41.9180 C   0  0  0  0  0  0  0  0  0  0  0  0
    8.6111  -38.8742   41.5680 C   0  0  0  0  0  0  0  0  0  0  0  0
    8.8041  -38.2788   40.1929 C   0  0  0  0  0  0  0  0  0  0  0  0
    8.9427  -39.2650   39.2507 O   0  0  0  0  0  0  0  0  0  0  0  0
    7.6526  -37.3516   39.9324 C   0  0  0  0  0  0  0  0  0  0  0  0
    8.3840  -37.8911   42.5234 O   0  0  0  0  0  0  0  0  0  0  0  0
    9.5228  -40.8075   42.7187 C   0  0  0  0  0  0  0  0  0  0  0  0
   10.6450  -38.7655   42.7426 O   0  0  0  0  0  0  0  0  0  0  0  0
   11.9395  -39.1617   42.9722 C   0  0  0  0  0  0  0  0  0  0  0  0
   10.5667  -44.6937   39.1995 C   0  0  0  0  0  0  0  0  0  0  0  0
   13.0405  -43.4370   38.1389 O   0  0  0  0  0  0  0  0  0  0  0  0
   13.8636  -42.3893   38.0216 C   0  0  0  0  0  0  0  0  0  0  0  0
   15.1396  -42.6686   38.7426 C   0  0  0  0  0  0  0  0  0  0  0  0
   16.1438  -41.5851   38.3780 C   0  0  0  0  0  0  0  0  0  0  0  0
   15.5341  -40.2693   38.8044 C   0  0  0  0  0  0  0  0  0  0  0  0
   14.0893  -40.1699   38.3720 C   0  0  0  0  0  0  0  0  0  0  0  0
   13.3365  -41.2550   38.7696 O   0  0  0  0  0  0  0  0  0  0  0  0
   14.0896  -39.8961   36.9039 C   0  0  0  0  0  0  0  0  0  0  0  0
   17.3980  -41.7820   39.0770 N   0  0  0  0  0  0  0  0  0  0  0  0
   18.2321  -42.7773   38.4768 C   0  0  0  0  0  0  0  0  0  0  0  0
   18.1686  -40.5534   39.1239 C   0  0  0  0  0  0  0  0  0  0  0  0
   15.6824  -43.8614   38.2947 O   0  0  0  0  0  0  0  0  0  0  0  0
   12.5118  -43.5978   35.1156 C   0  0  0  0  0  0  0  0  0  0  0  0
   12.9855  -45.3610   36.5898 O   0  0  0  0  0  0  0  0  0  0  0  0
   11.7024  -46.9336   34.2809 C   0  0  0  0  0  0  0  0  0  0  0  0
    8.8019  -46.1594   31.8122 C   0  0  0  0  0  0  0  0  0  0  0  0
    7.2905  -44.1038   31.6121 C   0  0  0  0  0  0  0  0  0  0  0  0
    8.2973  -42.0025   34.0561 O   0  0  0  0  0  0  0  0  0  0  0  0
    5.4738  -44.3392   34.2741 C   0  0  0  0  0  0  0  0  0  0  0  0
    5.7853  -42.4060   32.9993 O   0  0  0  0  0  0  0  0  0  0  0  0
  1  2  1  0
  2  3  1  0
  3  4  1  0
  4  5  1  0
  5  6  1  0
  6  7  1  0
  7  8  1  0
  8  9  1  0
  9 10  1  0
 10 11  1  0
 11 12  1  0
 12 13  1  0
 13 14  1  0
 14 15  1  0
 15 16  1  0
 16 17  2  0
 16 18  1  0
 15 19  1  0
 14 20  1  0
 20 21  1  0
 21 22  1  0
 22 23  1  0
 23 24  1  0
 24 25  1  0
 25 26  1  0
 25 27  1  0
 24 28  1  0
 23 29  1  0
 23 30  1  0
 30 31  1  0
 13 32  1  0
 12 33  1  0
 33 34  1  0
 34 35  1  0
 35 36  1  0
 36 37  1  0
 37 38  1  0
 38 39  1  0
 38 40  1  0
 36 41  1  0
 41 42  1  0
 41 43  1  0
 35 44  1  0
 11 45  1  0
 11 46  1  0
  9 47  1  0
  7 48  1  0
  6 49  1  0
  5 50  1  0
  4 51  1  0
  4 52  1  0
 18  3  1  0
 26 21  1  0
 39 34  1  0
M  END
$$$$
