
     RDKit          3D

 16 15  0  0  0  0  0  0  0  0999 V2000
   13.5007  -48.1287   -1.7463 C   0  0  0  0  0  0  0  0  0  0  0  0
   13.1058  -49.2761   -0.8428 C   0  0  0  0  0  0  0  0  0  0  0  0
   11.6434  -49.5178   -0.9467 N   0  0  0  0  0  0  0  0  0  0  0  0
   11.3146  -50.6405   -1.7876 C   0  0  0  0  0  0  0  0  0  0  0  0
   10.2704  -50.1829   -2.8025 C   0  0  0  0  0  0  0  0  0  0  0  0
   10.7918  -48.6715   -0.2419 C   0  0  0  0  0  0  0  0  0  0  0  0
    9.1610  -49.1164   -0.2875 S   0  0  0  0  0  0  0  0  0  0  0  0
   11.1124  -47.2197    0.6882 S   0  0  0  0  0  0  0  0  0  0  0  0
    9.3996  -46.5085    1.6587 S   0  0  0  0  0  0  0  0  0  0  0  0
    8.2565  -47.8130    2.1250 C   0  0  0  0  0  0  0  0  0  0  0  0
    8.0338  -49.0690    1.1300 S   0  0  0  0  0  0  0  0  0  0  0  0
    7.5647  -47.7090    3.3763 N   0  0  0  0  0  0  0  0  0  0  0  0
    8.1397  -46.9527    4.4699 C   0  0  0  0  0  0  0  0  0  0  0  0
    7.8792  -45.4840    4.3682 C   0  0  0  0  0  0  0  0  0  0  0  0
    6.2782  -48.3515    3.5397 C   0  0  0  0  0  0  0  0  0  0  0  0
    6.4570  -49.8197    3.9320 C   0  0  0  0  0  0  0  0  0  0  0  0
  1  2  1  0
  2  3  1  0
  3  4  1  0
  4  5  1  0
  3  6  1  0
  6  7  2  0
  6  8  1  0
  8  9  1  0
  9 10  1  0
 10 11  2  0
 10 12  1  0
 12 13  1  0
 13 14  1  0
 12 15  1  0
 15 16  1  0
M  END
$$$$
