
     RDKit          3D

 16 15  0  0  0  0  0  0  0  0999 V2000
    3.1798  -57.3437   19.9122 C   0  0  0  0  0  0  0  0  0  0  0  0
    4.1324  -58.4944   19.6724 C   0  0  0  0  0  0  0  0  0  0  0  0
    3.3650  -59.7546   19.4980 N   0  0  0  0  0  0  0  0  0  0  0  0
    2.0216  -59.5373   19.0250 C   0  0  0  0  0  0  0  0  0  0  0  0
    1.0732  -60.3531   19.8996 C   0  0  0  0  0  0  0  0  0  0  0  0
    4.0076  -60.9543   19.7915 C   0  0  0  0  0  0  0  0  0  0  0  0
    3.1938  -62.3375   19.2586 S   0  0  0  0  0  0  0  0  0  0  0  0
    5.5173  -61.2860   20.6199 S   0  0  0  0  0  0  0  0  0  0  0  0
    5.8059  -63.3331   20.9472 S   0  0  0  0  0  0  0  0  0  0  0  0
    4.4304  -64.1156   21.7966 C   0  0  0  0  0  0  0  0  0  0  0  0
    3.0206  -63.3313   21.9184 S   0  0  0  0  0  0  0  0  0  0  0  0
    4.6161  -65.4251   22.3494 N   0  0  0  0  0  0  0  0  0  0  0  0
    4.1918  -65.7147   23.7039 C   0  0  0  0  0  0  0  0  0  0  0  0
    2.7068  -65.8161   23.8446 C   0  0  0  0  0  0  0  0  0  0  0  0
    5.2171  -66.4654   21.5424 C   0  0  0  0  0  0  0  0  0  0  0  0
    5.5417  -67.6905   22.4000 C   0  0  0  0  0  0  0  0  0  0  0  0
  1  2  1  0
  2  3  1  0
  3  4  1  0
  4  5  1  0
  3  6  1  0
  6  7  2  0
  6  8  1  0
  8  9  1  0
  9 10  1  0
 10 11  2  0
 10 12  1  0
 12 13  1  0
 13 14  1  0
 12 15  1  0
 15 16  1  0
M  END
$$$$
