
     RDKit          3D

 16 15  0  0  0  0  0  0  0  0999 V2000
   27.4211  -49.4751   -2.4205 C   0  0  0  0  0  0  0  0  0  0  0  0
   26.3829  -48.3874   -2.5888 C   0  0  0  0  0  0  0  0  0  0  0  0
   25.0789  -48.8485   -2.0460 N   0  0  0  0  0  0  0  0  0  0  0  0
   24.2265  -49.4374   -3.0471 C   0  0  0  0  0  0  0  0  0  0  0  0
   23.0522  -48.4919   -3.2857 C   0  0  0  0  0  0  0  0  0  0  0  0
   24.8416  -48.6739   -0.6853 C   0  0  0  0  0  0  0  0  0  0  0  0
   23.5055  -47.7030   -0.3227 S   0  0  0  0  0  0  0  0  0  0  0  0
   25.6869  -49.2846    0.7247 S   0  0  0  0  0  0  0  0  0  0  0  0
   25.5521  -47.9781    2.3544 S   0  0  0  0  0  0  0  0  0  0  0  0
   26.6194  -46.5418    2.2010 C   0  0  0  0  0  0  0  0  0  0  0  0
   26.6463  -45.7153    0.8105 S   0  0  0  0  0  0  0  0  0  0  0  0
   27.4269  -46.1597    3.3222 N   0  0  0  0  0  0  0  0  0  0  0  0
   27.3374  -46.8886    4.5709 C   0  0  0  0  0  0  0  0  0  0  0  0
   28.1215  -48.1615    4.5648 C   0  0  0  0  0  0  0  0  0  0  0  0
   28.3466  -45.0492    3.1980 C   0  0  0  0  0  0  0  0  0  0  0  0
   27.5817  -43.7317    3.0546 C   0  0  0  0  0  0  0  0  0  0  0  0
  1  2  1  0
  2  3  1  0
  3  4  1  0
  4  5  1  0
  3  6  1  0
  6  7  2  0
  6  8  1  0
  8  9  1  0
  9 10  1  0
 10 11  2  0
 10 12  1  0
 12 13  1  0
 13 14  1  0
 12 15  1  0
 15 16  1  0
M  END
$$$$
