
     RDKit          3D

 16 15  0  0  0  0  0  0  0  0999 V2000
   -3.5407  -24.7310    3.5221 C   0  0  0  0  0  0  0  0  0  0  0  0
   -2.5030  -24.3438    2.4914 C   0  0  0  0  0  0  0  0  0  0  0  0
   -2.6064  -25.2415    1.3119 N   0  0  0  0  0  0  0  0  0  0  0  0
   -3.5097  -26.3446    1.5188 C   0  0  0  0  0  0  0  0  0  0  0  0
   -2.9033  -27.5831    0.8643 C   0  0  0  0  0  0  0  0  0  0  0  0
   -1.8555  -24.9232    0.1835 C   0  0  0  0  0  0  0  0  0  0  0  0
   -0.8362  -23.5870    0.3700 S   0  0  0  0  0  0  0  0  0  0  0  0
   -1.7801  -25.6656   -1.4036 S   0  0  0  0  0  0  0  0  0  0  0  0
   -0.6699  -24.5210   -2.7595 S   0  0  0  0  0  0  0  0  0  0  0  0
   -1.6285  -23.2158   -3.5360 C   0  0  0  0  0  0  0  0  0  0  0  0
   -3.2376  -23.2036   -3.3694 S   0  0  0  0  0  0  0  0  0  0  0  0
   -0.9398  -22.2093   -4.2895 N   0  0  0  0  0  0  0  0  0  0  0  0
   -1.6842  -21.1939   -5.0060 C   0  0  0  0  0  0  0  0  0  0  0  0
   -2.1395  -20.0718   -4.1290 C   0  0  0  0  0  0  0  0  0  0  0  0
    0.5071  -22.2012   -4.3203 C   0  0  0  0  0  0  0  0  0  0  0  0
    1.0663  -21.4687   -3.0987 C   0  0  0  0  0  0  0  0  0  0  0  0
  1  2  1  0
  2  3  1  0
  3  4  1  0
  4  5  1  0
  3  6  1  0
  6  7  2  0
  6  8  1  0
  8  9  1  0
  9 10  1  0
 10 11  2  0
 10 12  1  0
 12 13  1  0
 13 14  1  0
 12 15  1  0
 15 16  1  0
M  END
$$$$
