
     RDKit          3D

  5  4  0  0  0  0  0  0  0  0999 V2000
    0.5297   -4.7182   -2.1130 C   0  0  0  0  0  0  0  0  0  0  0  0
    0.4950   -3.3049   -2.6248 C   0  0  0  0  0  0  0  0  0  0  0  0
    1.5791   -2.6408   -2.7041 O   0  0  0  0  0  0  0  0  0  0  0  0
   -0.6757   -2.7234   -3.0048 O   0  0  0  0  0  0  0  0  0  0  0  0
    1.6996   -4.9403   -1.4139 F   0  0  0  0  0  0  0  0  0  0  0  0
  1  2  1  0
  2  3  2  0
  2  4  1  0
  1  5  1  0
M  END
$$$$
