
     RDKit          3D

  5  4  0  0  0  0  0  0  0  0999 V2000
  -21.0304   -5.7291   -4.7941 C   0  0  0  0  0  0  0  0  0  0  0  0
  -21.0719   -5.8624   -6.2911 C   0  0  0  0  0  0  0  0  0  0  0  0
  -19.9804   -5.9320   -6.9441 O   0  0  0  0  0  0  0  0  0  0  0  0
  -22.2565   -5.9100   -6.9600 O   0  0  0  0  0  0  0  0  0  0  0  0
  -19.8417   -5.1451   -4.4033 F   0  0  0  0  0  0  0  0  0  0  0  0
  1  2  1  0
  2  3  2  0
  2  4  1  0
  1  5  1  0
M  END
$$$$
