
     RDKit          3D

  5  4  0  0  0  0  0  0  0  0999 V2000
  -17.9694  -10.0503   -5.3568 C   0  0  0  0  0  0  0  0  0  0  0  0
  -18.5756   -9.4606   -6.6000 C   0  0  0  0  0  0  0  0  0  0  0  0
  -18.6908   -8.1961   -6.7014 O   0  0  0  0  0  0  0  0  0  0  0  0
  -19.0033  -10.2557   -7.6187 O   0  0  0  0  0  0  0  0  0  0  0  0
  -17.9666  -11.4286   -5.4390 F   0  0  0  0  0  0  0  0  0  0  0  0
  1  2  1  0
  2  3  2  0
  2  4  1  0
  1  5  1  0
M  END
$$$$
