
     RDKit          3D

  5  4  0  0  0  0  0  0  0  0999 V2000
    3.2313   -3.9412    0.9152 C   0  0  0  0  0  0  0  0  0  0  0  0
    4.5219   -4.6971    0.7613 C   0  0  0  0  0  0  0  0  0  0  0  0
    4.5592   -5.7262    0.0117 O   0  0  0  0  0  0  0  0  0  0  0  0
    5.6508   -4.2998    1.4098 O   0  0  0  0  0  0  0  0  0  0  0  0
    2.2088   -4.6147    0.2769 F   0  0  0  0  0  0  0  0  0  0  0  0
  1  2  1  0
  2  3  2  0
  2  4  1  0
  1  5  1  0
M  END
$$$$
