
     RDKit          3D

  5  4  0  0  0  0  0  0  0  0999 V2000
  -14.8972   -5.5960    2.8817 C   0  0  0  0  0  0  0  0  0  0  0  0
  -14.7350   -4.9756    4.2416 C   0  0  0  0  0  0  0  0  0  0  0  0
  -15.5632   -5.2655    5.1649 O   0  0  0  0  0  0  0  0  0  0  0  0
  -13.7179   -4.1093    4.5023 O   0  0  0  0  0  0  0  0  0  0  0  0
  -16.0906   -6.2874    2.8157 F   0  0  0  0  0  0  0  0  0  0  0  0
  1  2  1  0
  2  3  2  0
  2  4  1  0
  1  5  1  0
M  END
$$$$
