
     RDKit          3D

  5  4  0  0  0  0  0  0  0  0999 V2000
   -4.8417   -9.4104  -11.5521 C   0  0  0  0  0  0  0  0  0  0  0  0
   -3.7533  -10.3566  -11.2017 C   0  0  0  0  0  0  0  0  0  0  0  0
   -3.8459  -11.2086  -10.2801 O   0  0  0  0  0  0  0  0  0  0  0  0
   -2.5735  -10.2821  -11.9410 O   0  0  0  0  0  0  0  0  0  0  0  0
   -4.3726   -8.3256  -12.3098 F   0  0  0  0  0  0  0  0  0  0  0  0
  1  2  1  0
  2  3  2  0
  2  4  1  0
  1  5  1  0
M  END
$$$$
