
     RDKit          3D

  5  4  0  0  0  0  0  0  0  0999 V2000
    2.2014   15.0673   -7.8305 C   0  0  0  0  0  0  0  0  0  0  0  0
    3.1388   14.8432   -8.9593 C   0  0  0  0  0  0  0  0  0  0  0  0
    4.2041   15.4948   -9.1150 O   0  0  0  0  0  0  0  0  0  0  0  0
    2.8046   13.8572   -9.8866 O   0  0  0  0  0  0  0  0  0  0  0  0
    2.5789   16.1666   -7.0431 F   0  0  0  0  0  0  0  0  0  0  0  0
  1  2  1  0
  2  3  2  0
  2  4  1  0
  1  5  1  0
M  END
$$$$
