
     RDKit          3D

  5  4  0  0  0  0  0  0  0  0999 V2000
   12.6710    6.0772   -9.4727 C   0  0  0  0  0  0  0  0  0  0  0  0
   11.4406    6.5716   -8.8060 C   0  0  0  0  0  0  0  0  0  0  0  0
   10.2807    6.3547   -9.2435 O   0  0  0  0  0  0  0  0  0  0  0  0
   11.5970    7.3148   -7.6368 O   0  0  0  0  0  0  0  0  0  0  0  0
   12.3889    5.4330  -10.6878 F   0  0  0  0  0  0  0  0  0  0  0  0
  1  2  1  0
  2  3  2  0
  2  4  1  0
  1  5  1  0
M  END
$$$$
