
     RDKit          3D

  5  4  0  0  0  0  0  0  0  0999 V2000
    7.3908   12.9096   -3.3695 C   0  0  0  0  0  0  0  0  0  0  0  0
    7.0111   14.2882   -3.7674 C   0  0  0  0  0  0  0  0  0  0  0  0
    7.4050   14.8360   -4.8298 O   0  0  0  0  0  0  0  0  0  0  0  0
    6.1759   14.9990   -2.9066 O   0  0  0  0  0  0  0  0  0  0  0  0
    6.3521   12.2526   -2.6910 F   0  0  0  0  0  0  0  0  0  0  0  0
  1  2  1  0
  2  3  2  0
  2  4  1  0
  1  5  1  0
M  END
$$$$
