
     RDKit          3D

  5  4  0  0  0  0  0  0  0  0999 V2000
   -2.9702  -10.1610   -5.8727 C   0  0  0  0  0  0  0  0  0  0  0  0
   -3.7714  -11.3827   -5.6110 C   0  0  0  0  0  0  0  0  0  0  0  0
   -3.8877  -12.3250   -6.4369 O   0  0  0  0  0  0  0  0  0  0  0  0
   -4.4236  -11.4729   -4.3820 O   0  0  0  0  0  0  0  0  0  0  0  0
   -2.5860  -10.0618   -7.2194 F   0  0  0  0  0  0  0  0  0  0  0  0
  1  2  1  0
  2  3  2  0
  2  4  1  0
  1  5  1  0
M  END
$$$$
