
     RDKit          3D

  5  4  0  0  0  0  0  0  0  0999 V2000
    6.6112   12.6514   -3.8442 C   0  0  0  0  0  0  0  0  0  0  0  0
    6.9060   13.7153   -4.8362 C   0  0  0  0  0  0  0  0  0  0  0  0
    7.0893   13.4895   -6.0605 O   0  0  0  0  0  0  0  0  0  0  0  0
    6.9821   15.0268   -4.3691 O   0  0  0  0  0  0  0  0  0  0  0  0
    6.6472   11.3711   -4.4189 F   0  0  0  0  0  0  0  0  0  0  0  0
  1  2  1  0
  2  3  2  0
  2  4  1  0
  1  5  1  0
M  END
$$$$
