
     RDKit          3D

  5  4  0  0  0  0  0  0  0  0999 V2000
   -7.3326   -3.2000   21.1470 C   0  0  0  0  0  0  0  0  0  0  0  0
   -8.3238   -2.7738   20.1277 C   0  0  0  0  0  0  0  0  0  0  0  0
   -8.2272   -1.7040   19.4722 O   0  0  0  0  0  0  0  0  0  0  0  0
   -9.4129   -3.6138   19.8993 O   0  0  0  0  0  0  0  0  0  0  0  0
   -7.1436   -4.5911   21.1482 F   0  0  0  0  0  0  0  0  0  0  0  0
  1  2  1  0
  2  3  2  0
  2  4  1  0
  1  5  1  0
M  END
$$$$
