
     RDKit          3D

 59 63  0  0  0  0  0  0  0  0999 V2000
    5.7709  -50.2459    2.1773 C   0  0  0  0  0  0  0  0  0  0  0  0
    6.2942  -49.3384    3.2948 C   0  0  0  0  0  0  0  0  0  0  0  0
    7.2844  -50.1703    4.0232 C   0  0  0  0  0  0  0  0  0  0  0  0
    8.3837  -50.6618    3.4552 C   0  0  0  0  0  0  0  0  0  0  0  0
    9.3644  -51.4764    4.1398 C   0  0  0  0  0  0  0  0  0  0  0  0
   10.2132  -51.0834    5.0404 C   0  0  0  0  0  0  0  0  0  0  0  0
   10.3786  -49.7455    5.5665 C   0  0  0  0  0  0  0  0  0  0  0  0
    9.9992  -49.5433    6.7451 O   0  0  0  0  0  0  0  0  0  0  0  0
   10.9325  -48.6467    4.8750 N   0  0  0  0  0  0  0  0  0  0  0  0
   10.2689  -47.7812    3.9882 C   0  0  0  0  0  0  0  0  0  0  0  0
   10.3574  -47.8483    2.6170 C   0  0  0  0  0  0  0  0  0  0  0  0
    9.6829  -46.9395    1.8057 C   0  0  0  0  0  0  0  0  0  0  0  0
    8.8988  -45.9310    2.3111 C   0  0  0  0  0  0  0  0  0  0  0  0
    8.8181  -45.8745    3.7120 C   0  0  0  0  0  0  0  0  0  0  0  0
    9.4847  -46.7751    4.5141 C   0  0  0  0  0  0  0  0  0  0  0  0
    9.3405  -46.6377    5.9057 O   0  0  0  0  0  0  0  0  0  0  0  0
    8.0612  -44.8749    4.3340 C   0  0  0  0  0  0  0  0  0  0  0  0
    7.3763  -43.9212    3.6067 C   0  0  0  0  0  0  0  0  0  0  0  0
    7.4783  -44.0080    2.2341 C   0  0  0  0  0  0  0  0  0  0  0  0
    8.2249  -44.9954    1.6232 C   0  0  0  0  0  0  0  0  0  0  0  0
    8.1154  -44.7942    0.2068 C   0  0  0  0  0  0  0  0  0  0  0  0
    8.7684  -45.1793   -0.7816 O   0  0  0  0  0  0  0  0  0  0  0  0
    6.9019  -43.9041    0.0261 C   0  0  0  0  0  0  0  0  0  0  0  0
    6.9113  -43.2044    1.2571 O   0  0  0  0  0  0  0  0  0  0  0  0
    5.7195  -44.6654   -0.0761 O   0  0  0  0  0  0  0  0  0  0  0  0
    4.5129  -43.9793   -0.1414 C   0  0  0  0  0  0  0  0  0  0  0  0
    3.3981  -44.4860    0.3165 C   0  0  0  0  0  0  0  0  0  0  0  0
    3.2735  -45.8247    0.9498 C   0  0  0  0  0  0  0  0  0  0  0  0
    3.2140  -45.7876    2.4400 C   0  0  0  0  0  0  0  0  0  0  0  0
    1.8850  -46.1597    3.0500 C   0  0  0  0  0  0  0  0  0  0  0  0
    1.7814  -47.5462    3.5715 C   0  0  0  0  0  0  0  0  0  0  0  0
    2.9969  -47.8937    4.3930 C   0  0  0  0  0  0  0  0  0  0  0  0
    3.8468  -48.9587    3.6754 C   0  0  0  0  0  0  0  0  0  0  0  0
    5.2227  -48.9350    4.2579 C   0  0  0  0  0  0  0  0  0  0  0  0
    5.5538  -47.6765    4.7484 O   0  0  0  0  0  0  0  0  0  0  0  0
    3.2332  -50.3240    3.9806 C   0  0  0  0  0  0  0  0  0  0  0  0
    2.6774  -48.5035    5.6183 O   0  0  0  0  0  0  0  0  0  0  0  0
    0.5794  -47.6034    4.4989 C   0  0  0  0  0  0  0  0  0  0  0  0
    0.8308  -45.6864    2.2697 O   0  0  0  0  0  0  0  0  0  0  0  0
   -0.4098  -45.3128    2.7716 C   0  0  0  0  0  0  0  0  0  0  0  0
   -1.3834  -45.2716    2.0106 O   0  0  0  0  0  0  0  0  0  0  0  0
   -0.4685  -44.9848    4.2222 C   0  0  0  0  0  0  0  0  0  0  0  0
    3.6049  -44.3541    2.8442 C   0  0  0  0  0  0  0  0  0  0  0  0
    2.2176  -46.4769    0.3295 O   0  0  0  0  0  0  0  0  0  0  0  0
    1.0938  -45.6970    0.1935 C   0  0  0  0  0  0  0  0  0  0  0  0
    7.1235  -42.9796   -1.1536 C   0  0  0  0  0  0  0  0  0  0  0  0
    6.6060  -42.8810    4.3058 C   0  0  0  0  0  0  0  0  0  0  0  0
    7.9697  -44.8035    5.7166 O   0  0  0  0  0  0  0  0  0  0  0  0
    9.8705  -47.1397    0.4279 O   0  0  0  0  0  0  0  0  0  0  0  0
   11.2128  -48.8832    1.9958 C   0  0  0  0  0  0  0  0  0  0  0  0
   11.1160  -50.0437    2.5248 N   0  0  0  0  0  0  0  0  0  0  0  0
   11.7199  -51.2211    2.1601 N   0  0  0  0  0  0  0  0  0  0  0  0
   13.0437  -51.3570    1.5723 C   0  0  0  0  0  0  0  0  0  0  0  0
   13.6706  -52.5453    2.2717 C   0  0  0  0  0  0  0  0  0  0  0  0
   13.0472  -53.7442    1.8063 N   0  0  0  0  0  0  0  0  0  0  0  0
   11.6404  -53.6252    1.7032 C   0  0  0  0  0  0  0  0  0  0  0  0
   10.9971  -52.4644    2.3782 C   0  0  0  0  0  0  0  0  0  0  0  0
   13.3747  -54.7916    2.7889 C   0  0  0  0  0  0  0  0  0  0  0  0
   11.1344  -52.1210    5.6357 C   0  0  0  0  0  0  0  0  0  0  0  0
  1  2  1  0
  2  3  1  0
  3  4  2  3
  4  5  1  0
  5  6  2  3
  6  7  1  0
  7  8  2  0
  7  9  1  0
  9 10  1  0
 10 11  1  0
 11 12  2  0
 12 13  1  0
 13 14  1  0
 14 15  1  0
 15 16  1  0
 14 17  2  0
 17 18  1  0
 18 19  2  0
 19 20  1  0
 20 21  1  0
 21 22  2  0
 21 23  1  0
 23 24  1  0
 23 25  1  0
 25 26  1  0
 26 27  2  3
 27 28  1  0
 28 29  1  0
 29 30  1  0
 30 31  1  0
 31 32  1  0
 32 33  1  0
 33 34  1  0
 34 35  1  0
 33 36  1  0
 32 37  1  0
 31 38  1  0
 30 39  1  0
 39 40  1  0
 40 41  2  0
 40 42  1  0
 29 43  1  0
 28 44  1  0
 44 45  1  0
 23 46  1  0
 18 47  1  0
 17 48  1  0
 12 49  1  0
 11 50  1  0
 50 51  2  3
 51 52  1  0
 52 53  1  0
 53 54  1  0
 54 55  1  0
 55 56  1  0
 56 57  1  0
 55 58  1  0
  6 59  1  0
 34  2  1  0
 15 10  2  0
 20 13  2  0
 24 19  1  0
 57 52  1  0
M  END
$$$$
