
     RDKit          3D

 59 63  0  0  0  0  0  0  0  0999 V2000
    2.2539  -50.5779   12.7198 C   0  0  0  0  0  0  0  0  0  0  0  0
    1.5967  -49.7886   13.8561 C   0  0  0  0  0  0  0  0  0  0  0  0
    0.4976  -49.0338   13.2040 C   0  0  0  0  0  0  0  0  0  0  0  0
   -0.5204  -49.6211   12.5783 C   0  0  0  0  0  0  0  0  0  0  0  0
   -1.6037  -48.9111   11.9329 C   0  0  0  0  0  0  0  0  0  0  0  0
   -2.5629  -48.2565   12.5139 C   0  0  0  0  0  0  0  0  0  0  0  0
   -2.7740  -48.0859   13.9352 C   0  0  0  0  0  0  0  0  0  0  0  0
   -2.5604  -46.9455   14.4125 O   0  0  0  0  0  0  0  0  0  0  0  0
   -3.2032  -49.0858   14.8343 N   0  0  0  0  0  0  0  0  0  0  0  0
   -2.4043  -50.0471   15.4775 C   0  0  0  0  0  0  0  0  0  0  0  0
   -2.3003  -51.3631   15.0906 C   0  0  0  0  0  0  0  0  0  0  0  0
   -1.5004  -52.2602   15.7938 C   0  0  0  0  0  0  0  0  0  0  0  0
   -0.7754  -51.8984   16.9031 C   0  0  0  0  0  0  0  0  0  0  0  0
   -0.8915  -50.5524   17.2866 C   0  0  0  0  0  0  0  0  0  0  0  0
   -1.6821  -49.6649   16.5894 C   0  0  0  0  0  0  0  0  0  0  0  0
   -1.7325  -48.3378   17.0502 O   0  0  0  0  0  0  0  0  0  0  0  0
   -0.2099  -50.0801   18.4142 C   0  0  0  0  0  0  0  0  0  0  0  0
    0.5893  -50.9054   19.1808 C   0  0  0  0  0  0  0  0  0  0  0  0
    0.6797  -52.2201   18.7741 C   0  0  0  0  0  0  0  0  0  0  0  0
    0.0071  -52.6831   17.6612 C   0  0  0  0  0  0  0  0  0  0  0  0
    0.3189  -54.0772   17.5272 C   0  0  0  0  0  0  0  0  0  0  0  0
   -0.1961  -55.0307   16.9128 O   0  0  0  0  0  0  0  0  0  0  0  0
    1.5631  -54.2871   18.3670 C   0  0  0  0  0  0  0  0  0  0  0  0
    1.3945  -53.2673   19.3348 O   0  0  0  0  0  0  0  0  0  0  0  0
    2.7328  -54.0405   17.6192 O   0  0  0  0  0  0  0  0  0  0  0  0
    3.9499  -54.0928   18.2875 C   0  0  0  0  0  0  0  0  0  0  0  0
    4.9790  -53.3763   17.9172 C   0  0  0  0  0  0  0  0  0  0  0  0
    4.9866  -52.4370   16.7654 C   0  0  0  0  0  0  0  0  0  0  0  0
    4.8365  -51.0036   17.1506 C   0  0  0  0  0  0  0  0  0  0  0  0
    6.0587  -50.1420   16.9497 C   0  0  0  0  0  0  0  0  0  0  0  0
    6.0604  -49.3021   15.7251 C   0  0  0  0  0  0  0  0  0  0  0  0
    4.7347  -48.6027   15.5626 C   0  0  0  0  0  0  0  0  0  0  0  0
    3.9732  -49.1648   14.3478 C   0  0  0  0  0  0  0  0  0  0  0  0
    2.5298  -48.8045   14.4881 C   0  0  0  0  0  0  0  0  0  0  0  0
    2.1580  -48.6731   15.8217 O   0  0  0  0  0  0  0  0  0  0  0  0
    4.5106  -48.4658   13.1002 C   0  0  0  0  0  0  0  0  0  0  0  0
    4.8664  -47.2364   15.2605 O   0  0  0  0  0  0  0  0  0  0  0  0
    7.1185  -48.2265   15.9027 C   0  0  0  0  0  0  0  0  0  0  0  0
    7.2215  -50.8539   17.2420 O   0  0  0  0  0  0  0  0  0  0  0  0
    8.4041  -50.2755   17.6862 C   0  0  0  0  0  0  0  0  0  0  0  0
    9.4709  -50.8798   17.5268 O   0  0  0  0  0  0  0  0  0  0  0  0
    8.2886  -48.9405   18.3339 C   0  0  0  0  0  0  0  0  0  0  0  0
    4.4211  -51.0044   18.6334 C   0  0  0  0  0  0  0  0  0  0  0  0
    6.1061  -52.7322   16.0009 O   0  0  0  0  0  0  0  0  0  0  0  0
    7.0940  -53.3828   16.7014 C   0  0  0  0  0  0  0  0  0  0  0  0
    1.5282  -55.6690   18.9870 C   0  0  0  0  0  0  0  0  0  0  0  0
    1.2741  -50.3665   20.3660 C   0  0  0  0  0  0  0  0  0  0  0  0
   -0.3126  -48.7537   18.8080 O   0  0  0  0  0  0  0  0  0  0  0  0
   -1.4961  -53.5656   15.2745 O   0  0  0  0  0  0  0  0  0  0  0  0
   -3.0801  -51.8403   13.9275 C   0  0  0  0  0  0  0  0  0  0  0  0
   -2.5739  -51.5489   12.7896 N   0  0  0  0  0  0  0  0  0  0  0  0
   -3.2003  -51.3144   11.5910 N   0  0  0  0  0  0  0  0  0  0  0  0
   -4.5856  -50.9061   11.4156 C   0  0  0  0  0  0  0  0  0  0  0  0
   -4.5546  -49.8431   10.3371 C   0  0  0  0  0  0  0  0  0  0  0  0
   -4.2973  -50.4639    9.0758 N   0  0  0  0  0  0  0  0  0  0  0  0
   -3.2849  -51.4508    9.1480 C   0  0  0  0  0  0  0  0  0  0  0  0
   -2.4304  -51.4716   10.3670 C   0  0  0  0  0  0  0  0  0  0  0  0
   -3.8643  -49.3905    8.1647 C   0  0  0  0  0  0  0  0  0  0  0  0
   -3.5791  -47.5720   11.6315 C   0  0  0  0  0  0  0  0  0  0  0  0
  1  2  1  0
  2  3  1  0
  3  4  2  3
  4  5  1  0
  5  6  2  3
  6  7  1  0
  7  8  2  0
  7  9  1  0
  9 10  1  0
 10 11  1  0
 11 12  2  0
 12 13  1  0
 13 14  1  0
 14 15  1  0
 15 16  1  0
 14 17  2  0
 17 18  1  0
 18 19  2  0
 19 20  1  0
 20 21  1  0
 21 22  2  0
 21 23  1  0
 23 24  1  0
 23 25  1  0
 25 26  1  0
 26 27  2  3
 27 28  1  0
 28 29  1  0
 29 30  1  0
 30 31  1  0
 31 32  1  0
 32 33  1  0
 33 34  1  0
 34 35  1  0
 33 36  1  0
 32 37  1  0
 31 38  1  0
 30 39  1  0
 39 40  1  0
 40 41  2  0
 40 42  1  0
 29 43  1  0
 28 44  1  0
 44 45  1  0
 23 46  1  0
 18 47  1  0
 17 48  1  0
 12 49  1  0
 11 50  1  0
 50 51  2  3
 51 52  1  0
 52 53  1  0
 53 54  1  0
 54 55  1  0
 55 56  1  0
 56 57  1  0
 55 58  1  0
  6 59  1  0
 34  2  1  0
 15 10  2  0
 20 13  2  0
 24 19  1  0
 57 52  1  0
M  END
$$$$
