
     RDKit          3D

 59 63  0  0  0  0  0  0  0  0999 V2000
    1.7146  -49.6867    6.8473 C   0  0  0  0  0  0  0  0  0  0  0  0
    0.7155  -48.8751    6.0171 C   0  0  0  0  0  0  0  0  0  0  0  0
    1.5506  -47.9062    5.2642 C   0  0  0  0  0  0  0  0  0  0  0  0
    2.4853  -48.2729    4.3898 C   0  0  0  0  0  0  0  0  0  0  0  0
    3.3146  -47.3513    3.6436 C   0  0  0  0  0  0  0  0  0  0  0  0
    2.9426  -46.5853    2.6634 C   0  0  0  0  0  0  0  0  0  0  0  0
    1.6192  -46.4755    2.0886 C   0  0  0  0  0  0  0  0  0  0  0  0
    0.9807  -45.4206    2.3198 O   0  0  0  0  0  0  0  0  0  0  0  0
    0.9819  -47.4465    1.2866 N   0  0  0  0  0  0  0  0  0  0  0  0
    0.2578  -48.5678    1.7276 C   0  0  0  0  0  0  0  0  0  0  0  0
    0.7442  -49.8545    1.7475 C   0  0  0  0  0  0  0  0  0  0  0  0
   -0.0445  -50.9167    2.1818 C   0  0  0  0  0  0  0  0  0  0  0  0
   -1.3396  -50.7546    2.6103 C   0  0  0  0  0  0  0  0  0  0  0  0
   -1.8227  -49.4363    2.5842 C   0  0  0  0  0  0  0  0  0  0  0  0
   -1.0412  -48.3854    2.1557 C   0  0  0  0  0  0  0  0  0  0  0  0
   -1.6139  -47.1016    2.1675 O   0  0  0  0  0  0  0  0  0  0  0  0
   -3.1358  -49.1595    2.9821 C   0  0  0  0  0  0  0  0  0  0  0  0
   -3.9929  -50.1552    3.4081 C   0  0  0  0  0  0  0  0  0  0  0  0
   -3.4841  -51.4369    3.4209 C   0  0  0  0  0  0  0  0  0  0  0  0
   -2.1884  -51.7070    3.0287 C   0  0  0  0  0  0  0  0  0  0  0  0
   -1.9911  -53.1217    3.1637 C   0  0  0  0  0  0  0  0  0  0  0  0
   -1.1613  -53.9335    2.7115 O   0  0  0  0  0  0  0  0  0  0  0  0
   -3.1041  -53.5911    4.0793 C   0  0  0  0  0  0  0  0  0  0  0  0
   -4.0972  -52.6233    3.7930 O   0  0  0  0  0  0  0  0  0  0  0  0
   -2.7268  -53.4948    5.4345 O   0  0  0  0  0  0  0  0  0  0  0  0
   -3.6856  -53.7932    6.3949 C   0  0  0  0  0  0  0  0  0  0  0  0
   -3.6835  -53.2359    7.5776 C   0  0  0  0  0  0  0  0  0  0  0  0
   -2.6852  -52.2375    8.0416 C   0  0  0  0  0  0  0  0  0  0  0  0
   -3.1705  -50.8276    7.9952 C   0  0  0  0  0  0  0  0  0  0  0  0
   -3.3981  -50.1708    9.3344 C   0  0  0  0  0  0  0  0  0  0  0  0
   -2.3175  -49.2645    9.7991 C   0  0  0  0  0  0  0  0  0  0  0  0
   -1.8847  -48.3444    8.6859 C   0  0  0  0  0  0  0  0  0  0  0  0
   -0.4571  -48.6905    8.2238 C   0  0  0  0  0  0  0  0  0  0  0  0
   -0.2459  -48.1043    6.8657 C   0  0  0  0  0  0  0  0  0  0  0  0
   -1.4382  -48.0004    6.1574 O   0  0  0  0  0  0  0  0  0  0  0  0
    0.5180  -48.0107    9.1834 C   0  0  0  0  0  0  0  0  0  0  0  0
   -1.7797  -47.0024    9.0902 O   0  0  0  0  0  0  0  0  0  0  0  0
   -2.8871  -48.3947   10.9068 C   0  0  0  0  0  0  0  0  0  0  0  0
   -3.9102  -51.0846   10.2548 O   0  0  0  0  0  0  0  0  0  0  0  0
   -4.5618  -50.7318   11.4302 C   0  0  0  0  0  0  0  0  0  0  0  0
   -4.5216  -51.4994   12.3986 O   0  0  0  0  0  0  0  0  0  0  0  0
   -5.2730  -49.4244   11.4290 C   0  0  0  0  0  0  0  0  0  0  0  0
   -4.4796  -50.8564    7.1848 C   0  0  0  0  0  0  0  0  0  0  0  0
   -2.2193  -52.6647    9.2768 O   0  0  0  0  0  0  0  0  0  0  0  0
   -3.0964  -53.4902    9.9393 C   0  0  0  0  0  0  0  0  0  0  0  0
   -3.5377  -54.9855    3.6755 C   0  0  0  0  0  0  0  0  0  0  0  0
   -5.3693  -49.8172    3.8024 C   0  0  0  0  0  0  0  0  0  0  0  0
   -3.6303  -47.8633    2.9630 O   0  0  0  0  0  0  0  0  0  0  0  0
    0.5942  -52.1675    2.1456 O   0  0  0  0  0  0  0  0  0  0  0  0
    2.1180  -50.1173    1.2656 C   0  0  0  0  0  0  0  0  0  0  0  0
    3.0450  -49.6975    2.0405 N   0  0  0  0  0  0  0  0  0  0  0  0
    4.4070  -49.8052    1.9086 N   0  0  0  0  0  0  0  0  0  0  0  0
    5.3821  -49.6857    2.9816 C   0  0  0  0  0  0  0  0  0  0  0  0
    6.3885  -50.7895    2.7307 C   0  0  0  0  0  0  0  0  0  0  0  0
    7.1912  -50.4425    1.6004 N   0  0  0  0  0  0  0  0  0  0  0  0
    6.4319  -49.9003    0.5357 C   0  0  0  0  0  0  0  0  0  0  0  0
    4.9539  -50.0724    0.5876 C   0  0  0  0  0  0  0  0  0  0  0  0
    7.8367  -51.6879    1.1507 C   0  0  0  0  0  0  0  0  0  0  0  0
    3.9838  -45.6842    2.0437 C   0  0  0  0  0  0  0  0  0  0  0  0
  1  2  1  0
  2  3  1  0
  3  4  2  3
  4  5  1  0
  5  6  2  3
  6  7  1  0
  7  8  2  0
  7  9  1  0
  9 10  1  0
 10 11  1  0
 11 12  2  0
 12 13  1  0
 13 14  1  0
 14 15  1  0
 15 16  1  0
 14 17  2  0
 17 18  1  0
 18 19  2  0
 19 20  1  0
 20 21  1  0
 21 22  2  0
 21 23  1  0
 23 24  1  0
 23 25  1  0
 25 26  1  0
 26 27  2  3
 27 28  1  0
 28 29  1  0
 29 30  1  0
 30 31  1  0
 31 32  1  0
 32 33  1  0
 33 34  1  0
 34 35  1  0
 33 36  1  0
 32 37  1  0
 31 38  1  0
 30 39  1  0
 39 40  1  0
 40 41  2  0
 40 42  1  0
 29 43  1  0
 28 44  1  0
 44 45  1  0
 23 46  1  0
 18 47  1  0
 17 48  1  0
 12 49  1  0
 11 50  1  0
 50 51  2  3
 51 52  1  0
 52 53  1  0
 53 54  1  0
 54 55  1  0
 55 56  1  0
 56 57  1  0
 55 58  1  0
  6 59  1  0
 34  2  1  0
 15 10  2  0
 20 13  2  0
 24 19  1  0
 57 52  1  0
M  END
$$$$
