
     RDKit          3D

 59 63  0  0  0  0  0  0  0  0999 V2000
    9.7285  -67.2883   31.8085 C   0  0  0  0  0  0  0  0  0  0  0  0
   10.9520  -66.6166   31.1778 C   0  0  0  0  0  0  0  0  0  0  0  0
   10.4359  -65.9785   29.9410 C   0  0  0  0  0  0  0  0  0  0  0  0
    9.5029  -65.0287   29.9442 C   0  0  0  0  0  0  0  0  0  0  0  0
    8.9803  -64.3910   28.7550 C   0  0  0  0  0  0  0  0  0  0  0  0
    9.5968  -63.5422   27.9899 C   0  0  0  0  0  0  0  0  0  0  0  0
   10.9432  -63.0357   28.1470 C   0  0  0  0  0  0  0  0  0  0  0  0
   11.8043  -63.4356   27.3268 O   0  0  0  0  0  0  0  0  0  0  0  0
   11.3758  -62.1279   29.1375 N   0  0  0  0  0  0  0  0  0  0  0  0
   11.7688  -62.4319   30.4525 C   0  0  0  0  0  0  0  0  0  0  0  0
   10.9801  -62.2532   31.5655 C   0  0  0  0  0  0  0  0  0  0  0  0
   11.4506  -62.5612   32.8394 C   0  0  0  0  0  0  0  0  0  0  0  0
   12.7126  -63.0537   33.0670 C   0  0  0  0  0  0  0  0  0  0  0  0
   13.5063  -63.2307   31.9221 C   0  0  0  0  0  0  0  0  0  0  0  0
   13.0396  -62.9271   30.6616 C   0  0  0  0  0  0  0  0  0  0  0  0
   13.9087  -63.1398   29.5774 O   0  0  0  0  0  0  0  0  0  0  0  0
   14.8161  -63.7097   32.0404 C   0  0  0  0  0  0  0  0  0  0  0  0
   15.3697  -64.0213   33.2668 C   0  0  0  0  0  0  0  0  0  0  0  0
   14.5611  -63.8354   34.3684 C   0  0  0  0  0  0  0  0  0  0  0  0
   13.2694  -63.3635   34.2488 C   0  0  0  0  0  0  0  0  0  0  0  0
   12.7206  -63.2909   35.5725 C   0  0  0  0  0  0  0  0  0  0  0  0
   11.7500  -62.6998   36.0828 O   0  0  0  0  0  0  0  0  0  0  0  0
   13.6171  -64.1700   36.4216 C   0  0  0  0  0  0  0  0  0  0  0  0
   14.8356  -64.0581   35.7089 O   0  0  0  0  0  0  0  0  0  0  0  0
   13.1818  -65.5110   36.4062 O   0  0  0  0  0  0  0  0  0  0  0  0
   13.9682  -66.4531   37.0580 C   0  0  0  0  0  0  0  0  0  0  0  0
   14.0212  -67.7017   36.6738 C   0  0  0  0  0  0  0  0  0  0  0  0
   13.2699  -68.2662   35.5224 C   0  0  0  0  0  0  0  0  0  0  0  0
   14.0897  -68.4359   34.2876 C   0  0  0  0  0  0  0  0  0  0  0  0
   14.3783  -69.8615   33.8862 C   0  0  0  0  0  0  0  0  0  0  0  0
   13.5247  -70.4108   32.8023 C   0  0  0  0  0  0  0  0  0  0  0  0
   13.4105  -69.4237   31.6685 C   0  0  0  0  0  0  0  0  0  0  0  0
   11.9774  -68.8673   31.5794 C   0  0  0  0  0  0  0  0  0  0  0  0
   12.0123  -67.5987   30.7906 C   0  0  0  0  0  0  0  0  0  0  0  0
   13.2397  -66.9546   30.9032 O   0  0  0  0  0  0  0  0  0  0  0  0
   11.1355  -69.8780   30.8025 C   0  0  0  0  0  0  0  0  0  0  0  0
   13.6116  -70.0090   30.4066 O   0  0  0  0  0  0  0  0  0  0  0  0
   14.2125  -71.6494   32.2540 C   0  0  0  0  0  0  0  0  0  0  0  0
   14.5841  -70.6615   35.0096 O   0  0  0  0  0  0  0  0  0  0  0  0
   15.2947  -71.8555   35.0021 C   0  0  0  0  0  0  0  0  0  0  0  0
   15.3801  -72.5158   36.0440 O   0  0  0  0  0  0  0  0  0  0  0  0
   15.9108  -72.2541   33.7072 C   0  0  0  0  0  0  0  0  0  0  0  0
   15.4044  -67.6764   34.5440 C   0  0  0  0  0  0  0  0  0  0  0  0
   12.6283  -69.4116   35.9713 O   0  0  0  0  0  0  0  0  0  0  0  0
   13.3824  -70.1565   36.8466 C   0  0  0  0  0  0  0  0  0  0  0  0
   13.7208  -63.5893   37.8171 C   0  0  0  0  0  0  0  0  0  0  0  0
   16.7560  -64.5076   33.3420 C   0  0  0  0  0  0  0  0  0  0  0  0
   15.6149  -63.8909   30.9205 O   0  0  0  0  0  0  0  0  0  0  0  0
   10.5275  -62.3266   33.8722 O   0  0  0  0  0  0  0  0  0  0  0  0
    9.6209  -61.6909   31.4077 C   0  0  0  0  0  0  0  0  0  0  0  0
    8.8423  -62.3780   30.6610 N   0  0  0  0  0  0  0  0  0  0  0  0
    7.5128  -62.1870   30.3782 N   0  0  0  0  0  0  0  0  0  0  0  0
    6.9770  -61.3973   29.2801 C   0  0  0  0  0  0  0  0  0  0  0  0
    5.8330  -62.2172   28.7203 C   0  0  0  0  0  0  0  0  0  0  0  0
    4.7373  -62.1781   29.6370 N   0  0  0  0  0  0  0  0  0  0  0  0
    5.1450  -62.3305   30.9841 C   0  0  0  0  0  0  0  0  0  0  0  0
    6.5259  -62.8286   31.2326 C   0  0  0  0  0  0  0  0  0  0  0  0
    3.8483  -63.2938   29.2701 C   0  0  0  0  0  0  0  0  0  0  0  0
    8.8555  -63.0192   26.7829 C   0  0  0  0  0  0  0  0  0  0  0  0
  1  2  1  0
  2  3  1  0
  3  4  2  3
  4  5  1  0
  5  6  2  3
  6  7  1  0
  7  8  2  0
  7  9  1  0
  9 10  1  0
 10 11  1  0
 11 12  2  0
 12 13  1  0
 13 14  1  0
 14 15  1  0
 15 16  1  0
 14 17  2  0
 17 18  1  0
 18 19  2  0
 19 20  1  0
 20 21  1  0
 21 22  2  0
 21 23  1  0
 23 24  1  0
 23 25  1  0
 25 26  1  0
 26 27  2  3
 27 28  1  0
 28 29  1  0
 29 30  1  0
 30 31  1  0
 31 32  1  0
 32 33  1  0
 33 34  1  0
 34 35  1  0
 33 36  1  0
 32 37  1  0
 31 38  1  0
 30 39  1  0
 39 40  1  0
 40 41  2  0
 40 42  1  0
 29 43  1  0
 28 44  1  0
 44 45  1  0
 23 46  1  0
 18 47  1  0
 17 48  1  0
 12 49  1  0
 11 50  1  0
 50 51  2  3
 51 52  1  0
 52 53  1  0
 53 54  1  0
 54 55  1  0
 55 56  1  0
 56 57  1  0
 55 58  1  0
  6 59  1  0
 34  2  1  0
 15 10  2  0
 20 13  2  0
 24 19  1  0
 57 52  1  0
M  END
$$$$
