
     RDKit          3D

 59 63  0  0  0  0  0  0  0  0999 V2000
    7.5087  -47.8184   28.7838 C   0  0  0  0  0  0  0  0  0  0  0  0
    7.0316  -49.2537   28.5421 C   0  0  0  0  0  0  0  0  0  0  0  0
    8.2646  -50.0772   28.6112 C   0  0  0  0  0  0  0  0  0  0  0  0
    9.0262  -50.1615   29.7001 C   0  0  0  0  0  0  0  0  0  0  0  0
   10.2331  -50.9541   29.7952 C   0  0  0  0  0  0  0  0  0  0  0  0
   10.3138  -52.2490   29.8484 C   0  0  0  0  0  0  0  0  0  0  0  0
    9.2219  -53.1983   29.8272 C   0  0  0  0  0  0  0  0  0  0  0  0
    9.0786  -53.8824   28.7854 O   0  0  0  0  0  0  0  0  0  0  0  0
    8.3045  -53.4283   30.8751 N   0  0  0  0  0  0  0  0  0  0  0  0
    7.1340  -52.7007   31.1520 C   0  0  0  0  0  0  0  0  0  0  0  0
    7.0190  -51.7513   32.1409 C   0  0  0  0  0  0  0  0  0  0  0  0
    5.8162  -51.0866   32.3656 C   0  0  0  0  0  0  0  0  0  0  0  0
    4.6826  -51.3310   31.6290 C   0  0  0  0  0  0  0  0  0  0  0  0
    4.8148  -52.3026   30.6236 C   0  0  0  0  0  0  0  0  0  0  0  0
    6.0057  -52.9590   30.4009 C   0  0  0  0  0  0  0  0  0  0  0  0
    6.0392  -53.9142   29.3701 O   0  0  0  0  0  0  0  0  0  0  0  0
    3.7169  -52.6435   29.8253 C   0  0  0  0  0  0  0  0  0  0  0  0
    2.4819  -52.0484   29.9926 C   0  0  0  0  0  0  0  0  0  0  0  0
    2.3897  -51.0992   30.9888 C   0  0  0  0  0  0  0  0  0  0  0  0
    3.4742  -50.7642   31.7743 C   0  0  0  0  0  0  0  0  0  0  0  0
    3.0341  -49.7579   32.6975 C   0  0  0  0  0  0  0  0  0  0  0  0
    3.4732  -49.3101   33.7738 O   0  0  0  0  0  0  0  0  0  0  0  0
    1.7505  -49.2112   32.1049 C   0  0  0  0  0  0  0  0  0  0  0  0
    1.2972  -50.3437   31.3858 O   0  0  0  0  0  0  0  0  0  0  0  0
    2.0103  -48.1546   31.2082 O   0  0  0  0  0  0  0  0  0  0  0  0
    0.9346  -47.6222   30.5080 C   0  0  0  0  0  0  0  0  0  0  0  0
    1.0695  -47.0964   29.3186 C   0  0  0  0  0  0  0  0  0  0  0  0
    2.3534  -46.9993   28.5762 C   0  0  0  0  0  0  0  0  0  0  0  0
    2.5246  -48.0406   27.5217 C   0  0  0  0  0  0  0  0  0  0  0  0
    2.4817  -47.5418   26.0983 C   0  0  0  0  0  0  0  0  0  0  0  0
    3.8000  -47.3606   25.4394 C   0  0  0  0  0  0  0  0  0  0  0  0
    4.6824  -48.5581   25.6852 C   0  0  0  0  0  0  0  0  0  0  0  0
    5.8593  -48.1819   26.6042 C   0  0  0  0  0  0  0  0  0  0  0  0
    6.4213  -49.4371   27.1885 C   0  0  0  0  0  0  0  0  0  0  0  0
    5.4567  -50.4330   27.2965 O   0  0  0  0  0  0  0  0  0  0  0  0
    6.9417  -47.5457   25.7338 C   0  0  0  0  0  0  0  0  0  0  0  0
    5.3152  -49.0241   24.5199 O   0  0  0  0  0  0  0  0  0  0  0  0
    3.5613  -47.2765   23.9414 C   0  0  0  0  0  0  0  0  0  0  0  0
    1.5479  -46.5155   25.9599 O   0  0  0  0  0  0  0  0  0  0  0  0
    0.7675  -46.3131   24.8283 C   0  0  0  0  0  0  0  0  0  0  0  0
    0.3094  -45.1871   24.6022 O   0  0  0  0  0  0  0  0  0  0  0  0
    0.5410  -47.4980   23.9566 C   0  0  0  0  0  0  0  0  0  0  0  0
    1.4072  -49.0730   27.7601 C   0  0  0  0  0  0  0  0  0  0  0  0
    2.4794  -45.6877   28.1415 O   0  0  0  0  0  0  0  0  0  0  0  0
    1.2757  -45.0776   27.8797 C   0  0  0  0  0  0  0  0  0  0  0  0
    0.7997  -48.8301   33.2212 C   0  0  0  0  0  0  0  0  0  0  0  0
    1.3536  -52.4507   29.1387 C   0  0  0  0  0  0  0  0  0  0  0  0
    3.8287  -53.6009   28.8272 O   0  0  0  0  0  0  0  0  0  0  0  0
    5.8584  -50.1451   33.4075 O   0  0  0  0  0  0  0  0  0  0  0  0
    8.1849  -51.4579   33.0029 C   0  0  0  0  0  0  0  0  0  0  0  0
    9.1288  -50.8174   32.4243 N   0  0  0  0  0  0  0  0  0  0  0  0
   10.2104  -50.1746   32.9730 N   0  0  0  0  0  0  0  0  0  0  0  0
   11.0340  -49.1723   32.3144 C   0  0  0  0  0  0  0  0  0  0  0  0
   11.2763  -48.1048   33.3613 C   0  0  0  0  0  0  0  0  0  0  0  0
   12.1933  -48.6055   34.3363 N   0  0  0  0  0  0  0  0  0  0  0  0
   11.9138  -49.9404   34.7159 C   0  0  0  0  0  0  0  0  0  0  0  0
   10.5855  -50.4984   34.3404 C   0  0  0  0  0  0  0  0  0  0  0  0
   12.0672  -47.7299   35.5141 C   0  0  0  0  0  0  0  0  0  0  0  0
   11.6912  -52.8630   29.9254 C   0  0  0  0  0  0  0  0  0  0  0  0
  1  2  1  0
  2  3  1  0
  3  4  2  3
  4  5  1  0
  5  6  2  3
  6  7  1  0
  7  8  2  0
  7  9  1  0
  9 10  1  0
 10 11  1  0
 11 12  2  0
 12 13  1  0
 13 14  1  0
 14 15  1  0
 15 16  1  0
 14 17  2  0
 17 18  1  0
 18 19  2  0
 19 20  1  0
 20 21  1  0
 21 22  2  0
 21 23  1  0
 23 24  1  0
 23 25  1  0
 25 26  1  0
 26 27  2  3
 27 28  1  0
 28 29  1  0
 29 30  1  0
 30 31  1  0
 31 32  1  0
 32 33  1  0
 33 34  1  0
 34 35  1  0
 33 36  1  0
 32 37  1  0
 31 38  1  0
 30 39  1  0
 39 40  1  0
 40 41  2  0
 40 42  1  0
 29 43  1  0
 28 44  1  0
 44 45  1  0
 23 46  1  0
 18 47  1  0
 17 48  1  0
 12 49  1  0
 11 50  1  0
 50 51  2  3
 51 52  1  0
 52 53  1  0
 53 54  1  0
 54 55  1  0
 55 56  1  0
 56 57  1  0
 55 58  1  0
  6 59  1  0
 34  2  1  0
 15 10  2  0
 20 13  2  0
 24 19  1  0
 57 52  1  0
M  END
$$$$
