
     RDKit          3D

 59 63  0  0  0  0  0  0  0  0999 V2000
   11.0078  -43.0611   41.9269 C   0  0  0  0  0  0  0  0  0  0  0  0
   11.9360  -43.7631   40.9310 C   0  0  0  0  0  0  0  0  0  0  0  0
   11.0524  -44.6915   40.1823 C   0  0  0  0  0  0  0  0  0  0  0  0
   10.0233  -44.2831   39.4429 C   0  0  0  0  0  0  0  0  0  0  0  0
    9.1450  -45.1649   38.7047 C   0  0  0  0  0  0  0  0  0  0  0  0
    9.4330  -45.8301   37.6274 C   0  0  0  0  0  0  0  0  0  0  0  0
   10.6922  -45.8441   36.9146 C   0  0  0  0  0  0  0  0  0  0  0  0
   11.3779  -46.8924   36.9850 O   0  0  0  0  0  0  0  0  0  0  0  0
   11.2183  -44.7860   36.1426 N   0  0  0  0  0  0  0  0  0  0  0  0
   11.9554  -43.6827   36.6069 C   0  0  0  0  0  0  0  0  0  0  0  0
   11.4410  -42.4201   36.7908 C   0  0  0  0  0  0  0  0  0  0  0  0
   12.2431  -41.3728   37.2367 C   0  0  0  0  0  0  0  0  0  0  0  0
   13.5793  -41.5266   37.5163 C   0  0  0  0  0  0  0  0  0  0  0  0
   14.0905  -42.8203   37.3238 C   0  0  0  0  0  0  0  0  0  0  0  0
   13.2958  -43.8566   36.8839 C   0  0  0  0  0  0  0  0  0  0  0  0
   13.8992  -45.1160   36.7231 O   0  0  0  0  0  0  0  0  0  0  0  0
   15.4443  -43.0849   37.5609 C   0  0  0  0  0  0  0  0  0  0  0  0
   16.3152  -42.1008   37.9858 C   0  0  0  0  0  0  0  0  0  0  0  0
   15.7780  -40.8433   38.1644 C   0  0  0  0  0  0  0  0  0  0  0  0
   14.4423  -40.5852   37.9305 C   0  0  0  0  0  0  0  0  0  0  0  0
   14.2240  -39.1950   38.2107 C   0  0  0  0  0  0  0  0  0  0  0  0
   13.3316  -38.3764   37.9189 O   0  0  0  0  0  0  0  0  0  0  0  0
   15.4134  -38.7684   39.0479 C   0  0  0  0  0  0  0  0  0  0  0  0
   16.3960  -39.6731   38.5775 O   0  0  0  0  0  0  0  0  0  0  0  0
   15.1808  -38.9944   40.4201 O   0  0  0  0  0  0  0  0  0  0  0  0
   16.2259  -38.7472   41.3018 C   0  0  0  0  0  0  0  0  0  0  0  0
   16.3604  -39.4043   42.4241 C   0  0  0  0  0  0  0  0  0  0  0  0
   15.4411  -40.4729   42.8951 C   0  0  0  0  0  0  0  0  0  0  0  0
   15.9547  -41.8560   42.6741 C   0  0  0  0  0  0  0  0  0  0  0  0
   16.3362  -42.6178   43.9194 C   0  0  0  0  0  0  0  0  0  0  0  0
   15.3329  -43.5976   44.4077 C   0  0  0  0  0  0  0  0  0  0  0  0
   14.8109  -44.4324   43.2659 C   0  0  0  0  0  0  0  0  0  0  0  0
   13.3348  -44.0971   42.9829 C   0  0  0  0  0  0  0  0  0  0  0  0
   12.9993  -44.5707   41.6059 C   0  0  0  0  0  0  0  0  0  0  0  0
   14.1142  -44.5718   40.7747 O   0  0  0  0  0  0  0  0  0  0  0  0
   12.4817  -44.8905   43.9711 C   0  0  0  0  0  0  0  0  0  0  0  0
   14.7825  -45.8071   43.5571 O   0  0  0  0  0  0  0  0  0  0  0  0
   16.0359  -44.5396   45.3701 C   0  0  0  0  0  0  0  0  0  0  0  0
   16.9173  -41.7698   44.8615 O   0  0  0  0  0  0  0  0  0  0  0  0
   17.9752  -42.1253   45.6893 C   0  0  0  0  0  0  0  0  0  0  0  0
   18.5094  -41.2613   46.3941 O   0  0  0  0  0  0  0  0  0  0  0  0
   18.3901  -43.5544   45.6607 C   0  0  0  0  0  0  0  0  0  0  0  0
   17.1718  -41.7121   41.7418 C   0  0  0  0  0  0  0  0  0  0  0  0
   15.0947  -40.1703   44.2042 O   0  0  0  0  0  0  0  0  0  0  0  0
   16.1775  -39.9574   45.0239 C   0  0  0  0  0  0  0  0  0  0  0  0
   15.7673  -37.3303   38.7287 C   0  0  0  0  0  0  0  0  0  0  0  0
   17.7331  -42.4240   38.2076 C   0  0  0  0  0  0  0  0  0  0  0  0
   15.9670  -44.3569   37.3763 O   0  0  0  0  0  0  0  0  0  0  0  0
   11.5725  -40.1463   37.3771 O   0  0  0  0  0  0  0  0  0  0  0  0
   10.0185  -42.1642   36.4752 C   0  0  0  0  0  0  0  0  0  0  0  0
    9.5836  -42.7738   35.4383 N   0  0  0  0  0  0  0  0  0  0  0  0
    8.3471  -43.3212   35.2033 N   0  0  0  0  0  0  0  0  0  0  0  0
    7.0679  -42.7341   35.5716 C   0  0  0  0  0  0  0  0  0  0  0  0
    6.1652  -42.9636   34.3772 C   0  0  0  0  0  0  0  0  0  0  0  0
    5.8156  -44.3479   34.3144 N   0  0  0  0  0  0  0  0  0  0  0  0
    6.9164  -45.2023   34.5636 C   0  0  0  0  0  0  0  0  0  0  0  0
    8.2778  -44.6014   34.5163 C   0  0  0  0  0  0  0  0  0  0  0  0
    5.3139  -44.5886   32.9505 C   0  0  0  0  0  0  0  0  0  0  0  0
    8.3566  -46.7096   37.0376 C   0  0  0  0  0  0  0  0  0  0  0  0
  1  2  1  0
  2  3  1  0
  3  4  2  3
  4  5  1  0
  5  6  2  3
  6  7  1  0
  7  8  2  0
  7  9  1  0
  9 10  1  0
 10 11  1  0
 11 12  2  0
 12 13  1  0
 13 14  1  0
 14 15  1  0
 15 16  1  0
 14 17  2  0
 17 18  1  0
 18 19  2  0
 19 20  1  0
 20 21  1  0
 21 22  2  0
 21 23  1  0
 23 24  1  0
 23 25  1  0
 25 26  1  0
 26 27  2  3
 27 28  1  0
 28 29  1  0
 29 30  1  0
 30 31  1  0
 31 32  1  0
 32 33  1  0
 33 34  1  0
 34 35  1  0
 33 36  1  0
 32 37  1  0
 31 38  1  0
 30 39  1  0
 39 40  1  0
 40 41  2  0
 40 42  1  0
 29 43  1  0
 28 44  1  0
 44 45  1  0
 23 46  1  0
 18 47  1  0
 17 48  1  0
 12 49  1  0
 11 50  1  0
 50 51  2  3
 51 52  1  0
 52 53  1  0
 53 54  1  0
 54 55  1  0
 55 56  1  0
 56 57  1  0
 55 58  1  0
  6 59  1  0
 34  2  1  0
 15 10  2  0
 20 13  2  0
 24 19  1  0
 57 52  1  0
M  END
$$$$
