
     RDKit          3D

 13 13  0  0  0  0  0  0  0  0999 V2000
   33.8237  -52.2275   13.0394 C   0  0  0  0  0  0  0  0  0  0  0  0
   32.7365  -52.5788   12.0737 C   0  0  0  0  0  0  0  0  0  0  0  0
   33.1020  -53.0663   10.9712 O   0  0  0  0  0  0  0  0  0  0  0  0
   31.3710  -52.3619   12.4119 N   0  0  0  0  0  0  0  0  0  0  0  0
   30.3295  -52.8076   11.4920 C   0  0  0  0  0  0  0  0  0  0  0  0
   29.2061  -52.8373   11.2794 N   0  0  0  0  0  0  0  0  0  0  0  0
   28.6227  -53.3813   10.2554 N   0  0  0  0  0  0  0  0  0  0  0  0
   29.1552  -53.9344    9.3759 C   0  0  0  0  0  0  0  0  0  0  0  0
   30.9636  -53.7574    9.9415 S   0  0  0  0  0  0  0  0  0  0  0  0
   28.9181  -54.7845    7.8689 S   0  0  0  0  0  0  0  0  0  0  0  0
   30.0724  -54.5934    6.9210 O   0  0  0  0  0  0  0  0  0  0  0  0
   27.6672  -54.2883    7.2033 O   0  0  0  0  0  0  0  0  0  0  0  0
   28.7503  -56.4880    8.0887 N   0  0  0  0  0  0  0  0  0  0  0  0
  1  2  1  0
  2  3  2  0
  2  4  1  0
  4  5  1  0
  5  6  2  0
  6  7  1  0
  7  8  2  0
  8  9  1  0
  8 10  1  0
 10 11  2  0
 10 12  2  0
 10 13  1  0
  9  5  1  0
M  END
$$$$
