
     RDKit          3D

 13 13  0  0  0  0  0  0  0  0999 V2000
   17.1603  -42.3279   42.1353 C   0  0  0  0  0  0  0  0  0  0  0  0
   16.2157  -42.6051   41.0089 C   0  0  0  0  0  0  0  0  0  0  0  0
   15.2334  -41.8246   40.8961 O   0  0  0  0  0  0  0  0  0  0  0  0
   16.4420  -43.7003   40.1282 N   0  0  0  0  0  0  0  0  0  0  0  0
   15.5324  -43.9129   39.0070 C   0  0  0  0  0  0  0  0  0  0  0  0
   15.2586  -44.5914   38.1279 N   0  0  0  0  0  0  0  0  0  0  0  0
   14.2876  -44.4174   37.2844 N   0  0  0  0  0  0  0  0  0  0  0  0
   13.5279  -43.5309   37.2858 C   0  0  0  0  0  0  0  0  0  0  0  0
   14.1711  -42.5673   38.7955 S   0  0  0  0  0  0  0  0  0  0  0  0
   12.1431  -42.8333   36.4823 S   0  0  0  0  0  0  0  0  0  0  0  0
   12.4834  -42.3169   35.1093 O   0  0  0  0  0  0  0  0  0  0  0  0
   11.6077  -41.6945   37.3009 O   0  0  0  0  0  0  0  0  0  0  0  0
   10.8607  -43.9681   36.2675 N   0  0  0  0  0  0  0  0  0  0  0  0
  1  2  1  0
  2  3  2  0
  2  4  1  0
  4  5  1  0
  5  6  2  0
  6  7  1  0
  7  8  2  0
  8  9  1  0
  8 10  1  0
 10 11  2  0
 10 12  2  0
 10 13  1  0
  9  5  1  0
M  END
$$$$
