
     RDKit          3D

 13 13  0  0  0  0  0  0  0  0999 V2000
   15.7888  -57.3687   24.9216 C   0  0  0  0  0  0  0  0  0  0  0  0
   14.8938  -57.1667   26.1031 C   0  0  0  0  0  0  0  0  0  0  0  0
   15.4174  -56.6368   27.1189 O   0  0  0  0  0  0  0  0  0  0  0  0
   13.5275  -57.5627   26.0515 N   0  0  0  0  0  0  0  0  0  0  0  0
   12.6543  -57.2590   27.1806 C   0  0  0  0  0  0  0  0  0  0  0  0
   11.5881  -57.3113   27.5914 N   0  0  0  0  0  0  0  0  0  0  0  0
   11.1801  -56.8934   28.7505 N   0  0  0  0  0  0  0  0  0  0  0  0
   11.8417  -56.3909   29.5707 C   0  0  0  0  0  0  0  0  0  0  0  0
   13.5224  -56.4155   28.6783 S   0  0  0  0  0  0  0  0  0  0  0  0
   11.8499  -55.6917   31.1710 S   0  0  0  0  0  0  0  0  0  0  0  0
   13.2466  -55.4957   31.6984 O   0  0  0  0  0  0  0  0  0  0  0  0
   11.1051  -56.5897   32.1158 O   0  0  0  0  0  0  0  0  0  0  0  0
   11.0929  -54.1416   31.2204 N   0  0  0  0  0  0  0  0  0  0  0  0
  1  2  1  0
  2  3  2  0
  2  4  1  0
  4  5  1  0
  5  6  2  0
  6  7  1  0
  7  8  2  0
  8  9  1  0
  8 10  1  0
 10 11  2  0
 10 12  2  0
 10 13  1  0
  9  5  1  0
M  END
$$$$
