
     RDKit          3D

 13 13  0  0  0  0  0  0  0  0999 V2000
    3.2533  -36.8658    8.9138 C   0  0  0  0  0  0  0  0  0  0  0  0
    3.2969  -37.7398    7.7005 C   0  0  0  0  0  0  0  0  0  0  0  0
    2.1972  -38.2168    7.3133 O   0  0  0  0  0  0  0  0  0  0  0  0
    4.5311  -37.9999    7.0406 N   0  0  0  0  0  0  0  0  0  0  0  0
    4.5395  -38.8482    5.8533 C   0  0  0  0  0  0  0  0  0  0  0  0
    5.1886  -39.4209    5.1057 N   0  0  0  0  0  0  0  0  0  0  0  0
    4.7756  -40.1195    4.0927 N   0  0  0  0  0  0  0  0  0  0  0  0
    3.6631  -40.2786    3.7766 C   0  0  0  0  0  0  0  0  0  0  0  0
    2.8015  -39.2586    5.1327 S   0  0  0  0  0  0  0  0  0  0  0  0
    2.6004  -41.0427    2.6204 S   0  0  0  0  0  0  0  0  0  0  0  0
    1.2912  -41.4563    3.2388 O   0  0  0  0  0  0  0  0  0  0  0  0
    3.2672  -42.2631    2.0548 O   0  0  0  0  0  0  0  0  0  0  0  0
    2.2043  -40.0061    1.2987 N   0  0  0  0  0  0  0  0  0  0  0  0
  1  2  1  0
  2  3  2  0
  2  4  1  0
  4  5  1  0
  5  6  2  0
  6  7  1  0
  7  8  2  0
  8  9  1  0
  8 10  1  0
 10 11  2  0
 10 12  2  0
 10 13  1  0
  9  5  1  0
M  END
$$$$
