
     RDKit          3D

 13 13  0  0  0  0  0  0  0  0999 V2000
   19.7683  -51.5449   10.9773 C   0  0  0  0  0  0  0  0  0  0  0  0
   20.7071  -52.0246    9.9160 C   0  0  0  0  0  0  0  0  0  0  0  0
   20.2186  -52.7820    9.0360 O   0  0  0  0  0  0  0  0  0  0  0  0
   22.0743  -51.6285    9.9271 N   0  0  0  0  0  0  0  0  0  0  0  0
   22.9525  -52.0683    8.8478 C   0  0  0  0  0  0  0  0  0  0  0  0
   24.0279  -52.1046    8.4600 N   0  0  0  0  0  0  0  0  0  0  0  0
   24.4362  -52.6368    7.3488 N   0  0  0  0  0  0  0  0  0  0  0  0
   23.7654  -53.1704    6.5562 C   0  0  0  0  0  0  0  0  0  0  0  0
   22.0709  -52.9865    7.4028 S   0  0  0  0  0  0  0  0  0  0  0  0
   23.7526  -54.0008    5.0199 S   0  0  0  0  0  0  0  0  0  0  0  0
   22.5338  -54.8694    4.8536 O   0  0  0  0  0  0  0  0  0  0  0  0
   24.9740  -54.8662    4.9060 O   0  0  0  0  0  0  0  0  0  0  0  0
   23.7577  -52.9138    3.6795 N   0  0  0  0  0  0  0  0  0  0  0  0
  1  2  1  0
  2  3  2  0
  2  4  1  0
  4  5  1  0
  5  6  2  0
  6  7  1  0
  7  8  2  0
  8  9  1  0
  8 10  1  0
 10 11  2  0
 10 12  2  0
 10 13  1  0
  9  5  1  0
M  END
$$$$
