
     RDKit          3D

 13 13  0  0  0  0  0  0  0  0999 V2000
    4.1283  -39.2611    5.5153 C   0  0  0  0  0  0  0  0  0  0  0  0
    4.7540  -40.2382    4.5710 C   0  0  0  0  0  0  0  0  0  0  0  0
    6.0126  -40.2414    4.5202 O   0  0  0  0  0  0  0  0  0  0  0  0
    3.9433  -41.1051    3.7852 N   0  0  0  0  0  0  0  0  0  0  0  0
    4.5794  -42.1548    2.9960 C   0  0  0  0  0  0  0  0  0  0  0  0
    4.4114  -43.0649    2.3238 N   0  0  0  0  0  0  0  0  0  0  0  0
    5.3251  -43.7979    1.7649 N   0  0  0  0  0  0  0  0  0  0  0  0
    6.4789  -43.6461    1.8581 C   0  0  0  0  0  0  0  0  0  0  0  0
    6.5048  -42.1175    2.9913 S   0  0  0  0  0  0  0  0  0  0  0  0
    8.0444  -44.2538    1.3788 S   0  0  0  0  0  0  0  0  0  0  0  0
    8.0613  -45.7554    1.2674 O   0  0  0  0  0  0  0  0  0  0  0  0
    9.0753  -43.8389    2.3882 O   0  0  0  0  0  0  0  0  0  0  0  0
    8.5474  -43.6497   -0.1576 N   0  0  0  0  0  0  0  0  0  0  0  0
  1  2  1  0
  2  3  2  0
  2  4  1  0
  4  5  1  0
  5  6  2  0
  6  7  1  0
  7  8  2  0
  8  9  1  0
  8 10  1  0
 10 11  2  0
 10 12  2  0
 10 13  1  0
  9  5  1  0
M  END
$$$$
