
     RDKit          3D

 13 13  0  0  0  0  0  0  0  0999 V2000
   40.5880  -56.3438   46.4562 C   0  0  0  0  0  0  0  0  0  0  0  0
   40.3828  -57.8103   46.2431 C   0  0  0  0  0  0  0  0  0  0  0  0
   39.5688  -58.3807   47.0170 O   0  0  0  0  0  0  0  0  0  0  0  0
   41.0849  -58.4965   45.2123 N   0  0  0  0  0  0  0  0  0  0  0  0
   40.8308  -59.9179   45.0014 C   0  0  0  0  0  0  0  0  0  0  0  0
   41.1090  -60.8479   44.3965 N   0  0  0  0  0  0  0  0  0  0  0  0
   40.6064  -62.0377   44.5246 N   0  0  0  0  0  0  0  0  0  0  0  0
   39.7802  -62.3555   45.2857 C   0  0  0  0  0  0  0  0  0  0  0  0
   39.4904  -60.6856   46.1513 S   0  0  0  0  0  0  0  0  0  0  0  0
   38.8052  -63.6830   45.8663 S   0  0  0  0  0  0  0  0  0  0  0  0
   37.5803  -63.2088   46.6028 O   0  0  0  0  0  0  0  0  0  0  0  0
   39.6196  -64.5362   46.7952 O   0  0  0  0  0  0  0  0  0  0  0  0
   38.2391  -64.6970   44.5898 N   0  0  0  0  0  0  0  0  0  0  0  0
  1  2  1  0
  2  3  2  0
  2  4  1  0
  4  5  1  0
  5  6  2  0
  6  7  1  0
  7  8  2  0
  8  9  1  0
  8 10  1  0
 10 11  2  0
 10 12  2  0
 10 13  1  0
  9  5  1  0
M  END
$$$$
