
     RDKit          3D

 25 24  0  0  0  0  0  0  0  0999 V2000
   -3.4497    0.7962  -12.9631 C   0  0  0  0  0  0  0  0  0  0  0  0
   -3.4838    2.0800  -12.8409 O   0  0  0  0  0  0  0  0  0  0  0  0
   -2.3448    0.1958  -13.6760 C   0  0  0  0  0  0  0  0  0  0  0  0
   -2.2515    0.4795  -15.1643 C   0  0  0  0  0  0  0  0  0  0  0  0
   -1.0807   -0.1184  -15.8115 C   0  0  0  0  0  0  0  0  0  0  0  0
   -0.8813    0.1114  -17.2931 C   0  0  0  0  0  0  0  0  0  0  0  0
    0.3393   -0.4826  -17.8437 C   0  0  0  0  0  0  0  0  0  0  0  0
    0.6743   -0.1848  -19.2803 C   0  0  0  0  0  0  0  0  0  0  0  0
    1.9187   -0.7516  -19.8364 C   0  0  0  0  0  0  0  0  0  0  0  0
    2.9527   -0.3845  -18.9324 F   0  0  0  0  0  0  0  0  0  0  0  0
    1.9141   -2.1260  -19.8514 F   0  0  0  0  0  0  0  0  0  0  0  0
    2.3523   -0.1952  -21.0279 F   0  0  0  0  0  0  0  0  0  0  0  0
    0.7719    1.2137  -19.3496 F   0  0  0  0  0  0  0  0  0  0  0  0
   -0.4121   -0.4872  -20.0809 F   0  0  0  0  0  0  0  0  0  0  0  0
    0.4410   -1.8313  -17.5823 F   0  0  0  0  0  0  0  0  0  0  0  0
    1.4217    0.1349  -17.1456 F   0  0  0  0  0  0  0  0  0  0  0  0
   -0.9182    1.5098  -17.4351 F   0  0  0  0  0  0  0  0  0  0  0  0
   -2.0536   -0.3489  -17.8839 F   0  0  0  0  0  0  0  0  0  0  0  0
    0.0611    0.3544  -15.1524 F   0  0  0  0  0  0  0  0  0  0  0  0
   -1.0663   -1.4984  -15.5824 F   0  0  0  0  0  0  0  0  0  0  0  0
   -3.4551    0.1071  -15.7044 F   0  0  0  0  0  0  0  0  0  0  0  0
   -2.2459    1.8853  -15.2062 F   0  0  0  0  0  0  0  0  0  0  0  0
   -2.4384   -1.2022  -13.5285 F   0  0  0  0  0  0  0  0  0  0  0  0
   -1.1033    0.5722  -13.1629 F   0  0  0  0  0  0  0  0  0  0  0  0
   -4.5246    0.1501  -12.3727 O   0  0  0  0  0  0  0  0  0  0  0  0
  1  2  2  0
  1  3  1  0
  3  4  1  0
  4  5  1  0
  5  6  1  0
  6  7  1  0
  7  8  1  0
  8  9  1  0
  9 10  1  0
  9 11  1  0
  9 12  1  0
  8 13  1  0
  8 14  1  0
  7 15  1  0
  7 16  1  0
  6 17  1  0
  6 18  1  0
  5 19  1  0
  5 20  1  0
  4 21  1  0
  4 22  1  0
  3 23  1  0
  3 24  1  0
  1 25  1  0
M  END
$$$$
