
     RDKit          3D

 25 24  0  0  0  0  0  0  0  0999 V2000
   -1.2016   -2.7966  -13.5556 C   0  0  0  0  0  0  0  0  0  0  0  0
   -0.9026   -2.0607  -12.5391 O   0  0  0  0  0  0  0  0  0  0  0  0
   -2.4470   -2.5518  -14.2475 C   0  0  0  0  0  0  0  0  0  0  0  0
   -3.2933   -1.3937  -13.7506 C   0  0  0  0  0  0  0  0  0  0  0  0
   -4.5001   -1.1545  -14.5467 C   0  0  0  0  0  0  0  0  0  0  0  0
   -5.4371   -0.0471  -14.1187 C   0  0  0  0  0  0  0  0  0  0  0  0
   -6.6451    0.0804  -14.9374 C   0  0  0  0  0  0  0  0  0  0  0  0
   -7.4750    1.3244  -14.7687 C   0  0  0  0  0  0  0  0  0  0  0  0
   -8.6457    1.5045  -15.6498 C   0  0  0  0  0  0  0  0  0  0  0  0
   -9.2440    2.7329  -15.2572 F   0  0  0  0  0  0  0  0  0  0  0  0
   -8.2953    1.6710  -16.9684 F   0  0  0  0  0  0  0  0  0  0  0  0
   -9.6776    0.5989  -15.4704 F   0  0  0  0  0  0  0  0  0  0  0  0
   -6.5908    2.3878  -15.0079 F   0  0  0  0  0  0  0  0  0  0  0  0
   -7.8255    1.4698  -13.4388 F   0  0  0  0  0  0  0  0  0  0  0  0
   -7.4343   -1.0482  -14.9029 F   0  0  0  0  0  0  0  0  0  0  0  0
   -6.1903    0.1999  -16.2861 F   0  0  0  0  0  0  0  0  0  0  0  0
   -4.6391    1.1105  -14.1418 F   0  0  0  0  0  0  0  0  0  0  0  0
   -5.6866   -0.2943  -12.7726 F   0  0  0  0  0  0  0  0  0  0  0  0
   -4.0995   -0.8856  -15.8614 F   0  0  0  0  0  0  0  0  0  0  0  0
   -5.2436   -2.3354  -14.6457 F   0  0  0  0  0  0  0  0  0  0  0  0
   -3.5240   -1.6273  -12.4197 F   0  0  0  0  0  0  0  0  0  0  0  0
   -2.3879   -0.3180  -13.7863 F   0  0  0  0  0  0  0  0  0  0  0  0
   -3.2381   -3.7130  -14.1460 F   0  0  0  0  0  0  0  0  0  0  0  0
   -2.2684   -2.3044  -15.6087 F   0  0  0  0  0  0  0  0  0  0  0  0
   -0.2484   -3.7596  -13.8478 O   0  0  0  0  0  0  0  0  0  0  0  0
  1  2  2  0
  1  3  1  0
  3  4  1  0
  4  5  1  0
  5  6  1  0
  6  7  1  0
  7  8  1  0
  8  9  1  0
  9 10  1  0
  9 11  1  0
  9 12  1  0
  8 13  1  0
  8 14  1  0
  7 15  1  0
  7 16  1  0
  6 17  1  0
  6 18  1  0
  5 19  1  0
  5 20  1  0
  4 21  1  0
  4 22  1  0
  3 23  1  0
  3 24  1  0
  1 25  1  0
M  END
$$$$
