
     RDKit          3D

 25 24  0  0  0  0  0  0  0  0999 V2000
    0.0286   -1.7717  -16.3369 C   0  0  0  0  0  0  0  0  0  0  0  0
   -0.4444   -0.5968  -16.5821 O   0  0  0  0  0  0  0  0  0  0  0  0
   -0.7202   -2.6548  -15.4714 C   0  0  0  0  0  0  0  0  0  0  0  0
   -1.9571   -2.0790  -14.8060 C   0  0  0  0  0  0  0  0  0  0  0  0
   -2.7715   -3.0736  -14.1026 C   0  0  0  0  0  0  0  0  0  0  0  0
   -4.0848   -2.6307  -13.4972 C   0  0  0  0  0  0  0  0  0  0  0  0
   -5.0095   -3.7220  -13.1809 C   0  0  0  0  0  0  0  0  0  0  0  0
   -6.4149   -3.3545  -12.7875 C   0  0  0  0  0  0  0  0  0  0  0  0
   -7.3790   -4.4469  -12.5500 C   0  0  0  0  0  0  0  0  0  0  0  0
   -8.6425   -3.8200  -12.3718 F   0  0  0  0  0  0  0  0  0  0  0  0
   -7.5270   -5.2691  -13.6414 F   0  0  0  0  0  0  0  0  0  0  0  0
   -7.2198   -5.1410  -11.3626 F   0  0  0  0  0  0  0  0  0  0  0  0
   -6.9002   -2.5783  -13.8515 F   0  0  0  0  0  0  0  0  0  0  0  0
   -6.3818   -2.4781  -11.7182 F   0  0  0  0  0  0  0  0  0  0  0  0
   -4.4738   -4.6369  -12.3014 F   0  0  0  0  0  0  0  0  0  0  0  0
   -5.2122   -4.4277  -14.4060 F   0  0  0  0  0  0  0  0  0  0  0  0
   -4.6115   -1.7257  -14.4357 F   0  0  0  0  0  0  0  0  0  0  0  0
   -3.7255   -1.8546  -12.4001 F   0  0  0  0  0  0  0  0  0  0  0  0
   -3.0480   -4.1127  -14.9999 F   0  0  0  0  0  0  0  0  0  0  0  0
   -2.0134   -3.6790  -13.0946 F   0  0  0  0  0  0  0  0  0  0  0  0
   -1.5261   -1.0382  -14.0249 F   0  0  0  0  0  0  0  0  0  0  0  0
   -2.6311   -1.4785  -15.8844 F   0  0  0  0  0  0  0  0  0  0  0  0
    0.1381   -3.0870  -14.4412 F   0  0  0  0  0  0  0  0  0  0  0  0
   -1.1695   -3.8006  -16.1281 F   0  0  0  0  0  0  0  0  0  0  0  0
    1.2396   -2.0277  -16.9609 O   0  0  0  0  0  0  0  0  0  0  0  0
  1  2  2  0
  1  3  1  0
  3  4  1  0
  4  5  1  0
  5  6  1  0
  6  7  1  0
  7  8  1  0
  8  9  1  0
  9 10  1  0
  9 11  1  0
  9 12  1  0
  8 13  1  0
  8 14  1  0
  7 15  1  0
  7 16  1  0
  6 17  1  0
  6 18  1  0
  5 19  1  0
  5 20  1  0
  4 21  1  0
  4 22  1  0
  3 23  1  0
  3 24  1  0
  1 25  1  0
M  END
$$$$
