
     RDKit          3D

 25 24  0  0  0  0  0  0  0  0999 V2000
    0.0814   -0.7039  -18.1764 C   0  0  0  0  0  0  0  0  0  0  0  0
    0.3142    0.0325  -19.2098 O   0  0  0  0  0  0  0  0  0  0  0  0
    0.5219   -2.0806  -18.1916 C   0  0  0  0  0  0  0  0  0  0  0  0
    1.2767   -2.5473  -19.4231 C   0  0  0  0  0  0  0  0  0  0  0  0
    1.7291   -3.9392  -19.3513 C   0  0  0  0  0  0  0  0  0  0  0  0
    2.5641   -4.4844  -20.4885 C   0  0  0  0  0  0  0  0  0  0  0  0
    3.1085   -5.8246  -20.2577 C   0  0  0  0  0  0  0  0  0  0  0  0
    4.1822   -6.3128  -21.1924 C   0  0  0  0  0  0  0  0  0  0  0  0
    4.7699   -7.6437  -20.9424 C   0  0  0  0  0  0  0  0  0  0  0  0
    3.7622   -8.5859  -21.2859 F   0  0  0  0  0  0  0  0  0  0  0  0
    5.8296   -7.9191  -21.7732 F   0  0  0  0  0  0  0  0  0  0  0  0
    5.0241   -7.9485  -19.6158 F   0  0  0  0  0  0  0  0  0  0  0  0
    5.2116   -5.3640  -21.0925 F   0  0  0  0  0  0  0  0  0  0  0  0
    3.7444   -6.1992  -22.4994 F   0  0  0  0  0  0  0  0  0  0  0  0
    2.1274   -6.7774  -20.0919 F   0  0  0  0  0  0  0  0  0  0  0  0
    3.8013   -5.7539  -19.0107 F   0  0  0  0  0  0  0  0  0  0  0  0
    3.5653   -3.5155  -20.6789 F   0  0  0  0  0  0  0  0  0  0  0  0
    1.7436   -4.3895  -21.6078 F   0  0  0  0  0  0  0  0  0  0  0  0
    2.4704   -4.0884  -18.1725 F   0  0  0  0  0  0  0  0  0  0  0  0
    0.6292   -4.7863  -19.1783 F   0  0  0  0  0  0  0  0  0  0  0  0
    0.4755   -2.2619  -20.4981 F   0  0  0  0  0  0  0  0  0  0  0  0
    2.3373   -1.6267  -19.4969 F   0  0  0  0  0  0  0  0  0  0  0  0
   -0.6148   -2.9038  -18.0689 F   0  0  0  0  0  0  0  0  0  0  0  0
    1.3605   -2.3907  -17.1208 F   0  0  0  0  0  0  0  0  0  0  0  0
   -0.5898   -0.0431  -17.1593 O   0  0  0  0  0  0  0  0  0  0  0  0
  1  2  2  0
  1  3  1  0
  3  4  1  0
  4  5  1  0
  5  6  1  0
  6  7  1  0
  7  8  1  0
  8  9  1  0
  9 10  1  0
  9 11  1  0
  9 12  1  0
  8 13  1  0
  8 14  1  0
  7 15  1  0
  7 16  1  0
  6 17  1  0
  6 18  1  0
  5 19  1  0
  5 20  1  0
  4 21  1  0
  4 22  1  0
  3 23  1  0
  3 24  1  0
  1 25  1  0
M  END
$$$$
