
     RDKit          3D

 25 24  0  0  0  0  0  0  0  0999 V2000
   -2.1148   -4.6309  -13.1342 C   0  0  0  0  0  0  0  0  0  0  0  0
   -2.2834   -5.7267  -13.7560 O   0  0  0  0  0  0  0  0  0  0  0  0
   -1.1278   -4.4989  -12.0364 C   0  0  0  0  0  0  0  0  0  0  0  0
   -1.7847   -4.6659  -10.6711 C   0  0  0  0  0  0  0  0  0  0  0  0
   -0.7136   -4.3471   -9.6620 C   0  0  0  0  0  0  0  0  0  0  0  0
   -1.0851   -4.5122   -8.2433 C   0  0  0  0  0  0  0  0  0  0  0  0
   -0.0770   -4.2919   -7.1897 C   0  0  0  0  0  0  0  0  0  0  0  0
   -0.3434   -4.9080   -5.8466 C   0  0  0  0  0  0  0  0  0  0  0  0
    0.4830   -4.1537   -4.7846 C   0  0  0  0  0  0  0  0  0  0  0  0
    1.8121   -4.0997   -5.1460 F   0  0  0  0  0  0  0  0  0  0  0  0
    0.3171   -4.7731   -3.5804 F   0  0  0  0  0  0  0  0  0  0  0  0
    0.0170   -2.8617   -4.7898 F   0  0  0  0  0  0  0  0  0  0  0  0
   -0.1394   -6.2443   -5.7478 F   0  0  0  0  0  0  0  0  0  0  0  0
   -1.6700   -4.6780   -5.4551 F   0  0  0  0  0  0  0  0  0  0  0  0
   -0.0609   -2.8916   -6.9827 F   0  0  0  0  0  0  0  0  0  0  0  0
    1.2185   -4.5786   -7.5801 F   0  0  0  0  0  0  0  0  0  0  0  0
   -1.5958   -5.8199   -8.1039 F   0  0  0  0  0  0  0  0  0  0  0  0
   -2.2195   -3.7081   -8.0310 F   0  0  0  0  0  0  0  0  0  0  0  0
    0.3219   -5.2940   -9.8838 F   0  0  0  0  0  0  0  0  0  0  0  0
   -0.1220   -3.1375   -9.9817 F   0  0  0  0  0  0  0  0  0  0  0  0
   -2.8656   -3.8367  -10.6494 F   0  0  0  0  0  0  0  0  0  0  0  0
   -2.2439   -5.9579  -10.5285 F   0  0  0  0  0  0  0  0  0  0  0  0
   -0.5411   -3.2458  -12.0753 F   0  0  0  0  0  0  0  0  0  0  0  0
   -0.1898   -5.5043  -12.1731 F   0  0  0  0  0  0  0  0  0  0  0  0
   -2.8841   -3.5239  -13.4999 O   0  0  0  0  0  0  0  0  0  0  0  0
  1  2  2  0
  1  3  1  0
  3  4  1  0
  4  5  1  0
  5  6  1  0
  6  7  1  0
  7  8  1  0
  8  9  1  0
  9 10  1  0
  9 11  1  0
  9 12  1  0
  8 13  1  0
  8 14  1  0
  7 15  1  0
  7 16  1  0
  6 17  1  0
  6 18  1  0
  5 19  1  0
  5 20  1  0
  4 21  1  0
  4 22  1  0
  3 23  1  0
  3 24  1  0
  1 25  1  0
M  END
$$$$
