
     RDKit          3D

 25 24  0  0  0  0  0  0  0  0999 V2000
   -2.4262   -1.8229  -11.5571 C   0  0  0  0  0  0  0  0  0  0  0  0
   -2.7579   -1.7263  -12.7804 O   0  0  0  0  0  0  0  0  0  0  0  0
   -1.1027   -2.3476  -11.1453 C   0  0  0  0  0  0  0  0  0  0  0  0
   -1.2271   -3.7050  -10.4631 C   0  0  0  0  0  0  0  0  0  0  0  0
   -0.2886   -3.6573   -9.2866 C   0  0  0  0  0  0  0  0  0  0  0  0
   -0.7657   -4.2988   -8.0462 C   0  0  0  0  0  0  0  0  0  0  0  0
    0.0493   -4.2222   -6.8193 C   0  0  0  0  0  0  0  0  0  0  0  0
   -0.4903   -4.9028   -5.5945 C   0  0  0  0  0  0  0  0  0  0  0  0
    0.3180   -4.4281   -4.3694 C   0  0  0  0  0  0  0  0  0  0  0  0
    1.5611   -3.9704   -4.7503 F   0  0  0  0  0  0  0  0  0  0  0  0
    0.4154   -5.4606   -3.4830 F   0  0  0  0  0  0  0  0  0  0  0  0
   -0.3638   -3.3497   -3.8609 F   0  0  0  0  0  0  0  0  0  0  0  0
   -0.5439   -6.2565   -5.6342 F   0  0  0  0  0  0  0  0  0  0  0  0
   -1.7925   -4.4609   -5.3205 F   0  0  0  0  0  0  0  0  0  0  0  0
    0.1136   -2.8433   -6.5057 F   0  0  0  0  0  0  0  0  0  0  0  0
    1.3736   -4.5778   -6.9992 F   0  0  0  0  0  0  0  0  0  0  0  0
   -0.9878   -5.6588   -8.3485 F   0  0  0  0  0  0  0  0  0  0  0  0
   -2.0655   -3.8117   -7.8185 F   0  0  0  0  0  0  0  0  0  0  0  0
    0.8547   -4.4070   -9.6723 F   0  0  0  0  0  0  0  0  0  0  0  0
    0.2010   -2.3715   -9.1371 F   0  0  0  0  0  0  0  0  0  0  0  0
   -2.5425   -3.8689  -10.1480 F   0  0  0  0  0  0  0  0  0  0  0  0
   -0.8793   -4.7051  -11.3459 F   0  0  0  0  0  0  0  0  0  0  0  0
   -0.5051   -1.4759  -10.2512 F   0  0  0  0  0  0  0  0  0  0  0  0
   -0.3323   -2.5204  -12.2793 F   0  0  0  0  0  0  0  0  0  0  0  0
   -3.3384   -1.4220  -10.5784 O   0  0  0  0  0  0  0  0  0  0  0  0
  1  2  2  0
  1  3  1  0
  3  4  1  0
  4  5  1  0
  5  6  1  0
  6  7  1  0
  7  8  1  0
  8  9  1  0
  9 10  1  0
  9 11  1  0
  9 12  1  0
  8 13  1  0
  8 14  1  0
  7 15  1  0
  7 16  1  0
  6 17  1  0
  6 18  1  0
  5 19  1  0
  5 20  1  0
  4 21  1  0
  4 22  1  0
  3 23  1  0
  3 24  1  0
  1 25  1  0
M  END
$$$$
