
     RDKit          3D

 29 28  0  0  0  0  0  0  0  0999 V2000
    4.4737   10.6347    2.0446 C   0  0  0  0  0  0  0  0  0  0  0  0
    5.9553   10.7476    2.0308 C   0  0  0  0  0  0  0  0  0  0  0  0
    6.5691   11.9010    2.7570 C   0  0  0  0  0  0  0  0  0  0  0  0
    8.0611   11.7399    2.8413 C   0  0  0  0  0  0  0  0  0  0  0  0
    8.8314   12.6515    3.7040 C   0  0  0  0  0  0  0  0  0  0  0  0
    8.7222   12.4229    5.0625 F   0  0  0  0  0  0  0  0  0  0  0  0
    8.7197   13.9939    3.4743 F   0  0  0  0  0  0  0  0  0  0  0  0
   10.5932   12.3240    3.2854 S   0  0  0  0  0  0  0  0  0  0  0  0
   10.7197   12.6692    1.8444 O   0  0  0  0  0  0  0  0  0  0  0  0
   10.8585   10.8796    3.5812 O   0  0  0  0  0  0  0  0  0  0  0  0
   11.4968   13.3676    4.2145 O   0  0  0  0  0  0  0  0  0  0  0  0
    8.3270   10.3905    3.1661 F   0  0  0  0  0  0  0  0  0  0  0  0
    8.6318   11.8454    1.5539 F   0  0  0  0  0  0  0  0  0  0  0  0
    6.2457   13.1022    2.1088 F   0  0  0  0  0  0  0  0  0  0  0  0
    6.0809   12.0856    4.0423 F   0  0  0  0  0  0  0  0  0  0  0  0
    6.6111    9.6023    2.3729 F   0  0  0  0  0  0  0  0  0  0  0  0
    6.2748   11.0136    0.6604 F   0  0  0  0  0  0  0  0  0  0  0  0
    3.8060    9.5360    1.3262 C   0  0  0  0  0  0  0  0  0  0  0  0
    2.3908    9.2304    1.6063 C   0  0  0  0  0  0  0  0  0  0  0  0
    1.6940    8.2360    0.7408 C   0  0  0  0  0  0  0  0  0  0  0  0
    2.3433    8.3390   -0.5178 F   0  0  0  0  0  0  0  0  0  0  0  0
    1.9258    6.9373    1.1468 F   0  0  0  0  0  0  0  0  0  0  0  0
    0.3598    8.4043    0.5571 F   0  0  0  0  0  0  0  0  0  0  0  0
    2.2433    8.9038    2.9585 F   0  0  0  0  0  0  0  0  0  0  0  0
    1.6791   10.4237    1.4706 F   0  0  0  0  0  0  0  0  0  0  0  0
    3.9627    9.6228   -0.0669 F   0  0  0  0  0  0  0  0  0  0  0  0
    4.5115    8.3176    1.6139 F   0  0  0  0  0  0  0  0  0  0  0  0
    4.0181   10.5885    3.3937 F   0  0  0  0  0  0  0  0  0  0  0  0
    3.9572   11.8534    1.6058 F   0  0  0  0  0  0  0  0  0  0  0  0
  1  2  1  0
  2  3  1  0
  3  4  1  0
  4  5  1  0
  5  6  1  0
  5  7  1  0
  5  8  1  0
  8  9  2  0
  8 10  2  0
  8 11  1  0
  4 12  1  0
  4 13  1  0
  3 14  1  0
  3 15  1  0
  2 16  1  0
  2 17  1  0
  1 18  1  0
 18 19  1  0
 19 20  1  0
 20 21  1  0
 20 22  1  0
 20 23  1  0
 19 24  1  0
 19 25  1  0
 18 26  1  0
 18 27  1  0
  1 28  1  0
  1 29  1  0
M  END
$$$$
