
     RDKit          3D

 29 28  0  0  0  0  0  0  0  0999 V2000
    4.9584   10.8229    1.5446 C   0  0  0  0  0  0  0  0  0  0  0  0
    6.2397   10.7734    2.2957 C   0  0  0  0  0  0  0  0  0  0  0  0
    7.1259   11.9756    2.2341 C   0  0  0  0  0  0  0  0  0  0  0  0
    8.3436   11.7801    3.0933 C   0  0  0  0  0  0  0  0  0  0  0  0
    9.2845   12.8998    3.2657 C   0  0  0  0  0  0  0  0  0  0  0  0
    8.8412   13.9344    4.0674 F   0  0  0  0  0  0  0  0  0  0  0  0
    9.8594   13.4285    2.1445 F   0  0  0  0  0  0  0  0  0  0  0  0
   10.7285   12.1736    4.1455 S   0  0  0  0  0  0  0  0  0  0  0  0
   11.3714   11.2698    3.1548 O   0  0  0  0  0  0  0  0  0  0  0  0
   10.2001   11.4608    5.3526 O   0  0  0  0  0  0  0  0  0  0  0  0
   11.7384   13.4434    4.5149 O   0  0  0  0  0  0  0  0  0  0  0  0
    7.9085   11.2876    4.3443 F   0  0  0  0  0  0  0  0  0  0  0  0
    9.1094   10.6980    2.6068 F   0  0  0  0  0  0  0  0  0  0  0  0
    7.5029   12.2254    0.9062 F   0  0  0  0  0  0  0  0  0  0  0  0
    6.5079   13.1553    2.6220 F   0  0  0  0  0  0  0  0  0  0  0  0
    6.1176   10.3726    3.5931 F   0  0  0  0  0  0  0  0  0  0  0  0
    7.0033    9.7665    1.6219 F   0  0  0  0  0  0  0  0  0  0  0  0
    3.9693    9.7417    1.6916 C   0  0  0  0  0  0  0  0  0  0  0  0
    2.6354    9.8803    1.0783 C   0  0  0  0  0  0  0  0  0  0  0  0
    1.7142    8.7082    1.1091 C   0  0  0  0  0  0  0  0  0  0  0  0
    2.5168    7.6105    0.7003 F   0  0  0  0  0  0  0  0  0  0  0  0
    1.3168    8.3900    2.3920 F   0  0  0  0  0  0  0  0  0  0  0  0
    0.6161    8.7644    0.3133 F   0  0  0  0  0  0  0  0  0  0  0  0
    2.0059   11.0221    1.5848 F   0  0  0  0  0  0  0  0  0  0  0  0
    2.8337   10.1781   -0.2712 F   0  0  0  0  0  0  0  0  0  0  0  0
    4.4816    8.4837    1.3342 F   0  0  0  0  0  0  0  0  0  0  0  0
    3.7143    9.5544    3.0934 F   0  0  0  0  0  0  0  0  0  0  0  0
    4.2876   12.0448    1.8392 F   0  0  0  0  0  0  0  0  0  0  0  0
    5.2706   10.9818    0.1949 F   0  0  0  0  0  0  0  0  0  0  0  0
  1  2  1  0
  2  3  1  0
  3  4  1  0
  4  5  1  0
  5  6  1  0
  5  7  1  0
  5  8  1  0
  8  9  2  0
  8 10  2  0
  8 11  1  0
  4 12  1  0
  4 13  1  0
  3 14  1  0
  3 15  1  0
  2 16  1  0
  2 17  1  0
  1 18  1  0
 18 19  1  0
 19 20  1  0
 20 21  1  0
 20 22  1  0
 20 23  1  0
 19 24  1  0
 19 25  1  0
 18 26  1  0
 18 27  1  0
  1 28  1  0
  1 29  1  0
M  END
$$$$
