
     RDKit          3D

 29 28  0  0  0  0  0  0  0  0999 V2000
    5.0912   11.0302    1.4343 C   0  0  0  0  0  0  0  0  0  0  0  0
    6.2872   11.1587    2.3069 C   0  0  0  0  0  0  0  0  0  0  0  0
    7.3326   12.1499    1.9082 C   0  0  0  0  0  0  0  0  0  0  0  0
    8.4200   12.2177    2.9435 C   0  0  0  0  0  0  0  0  0  0  0  0
    9.4948   13.2123    2.7879 C   0  0  0  0  0  0  0  0  0  0  0  0
    9.1217   14.5294    2.9770 F   0  0  0  0  0  0  0  0  0  0  0  0
   10.2797   13.1342    1.6721 F   0  0  0  0  0  0  0  0  0  0  0  0
   10.6877   12.8355    4.1375 S   0  0  0  0  0  0  0  0  0  0  0  0
   11.2810   11.5211    3.7745 O   0  0  0  0  0  0  0  0  0  0  0  0
    9.9135   12.8101    5.4198 O   0  0  0  0  0  0  0  0  0  0  0  0
   11.8453   14.0298    4.0859 O   0  0  0  0  0  0  0  0  0  0  0  0
    7.7991   12.3373    4.2073 F   0  0  0  0  0  0  0  0  0  0  0  0
    9.0610   10.9643    3.0536 F   0  0  0  0  0  0  0  0  0  0  0  0
    7.8707   11.8030    0.6600 F   0  0  0  0  0  0  0  0  0  0  0  0
    6.8478   13.4337    1.7056 F   0  0  0  0  0  0  0  0  0  0  0  0
    6.0045   11.3137    3.6315 F   0  0  0  0  0  0  0  0  0  0  0  0
    6.9577    9.9005    2.1716 F   0  0  0  0  0  0  0  0  0  0  0  0
    4.0726   10.0047    1.7167 C   0  0  0  0  0  0  0  0  0  0  0  0
    2.7662   10.0619    1.0350 C   0  0  0  0  0  0  0  0  0  0  0  0
    1.8812    8.8633    1.0937 C   0  0  0  0  0  0  0  0  0  0  0  0
    1.7425    8.5877    2.4798 F   0  0  0  0  0  0  0  0  0  0  0  0
    0.5991    9.1393    0.6637 F   0  0  0  0  0  0  0  0  0  0  0  0
    2.3191    7.7409    0.4687 F   0  0  0  0  0  0  0  0  0  0  0  0
    2.0780   11.2097    1.4421 F   0  0  0  0  0  0  0  0  0  0  0  0
    3.0201   10.2865   -0.3193 F   0  0  0  0  0  0  0  0  0  0  0  0
    4.5689    8.6966    1.5926 F   0  0  0  0  0  0  0  0  0  0  0  0
    3.7609   10.0561    3.1186 F   0  0  0  0  0  0  0  0  0  0  0  0
    4.4161   12.2833    1.3743 F   0  0  0  0  0  0  0  0  0  0  0  0
    5.5437   10.8818    0.1236 F   0  0  0  0  0  0  0  0  0  0  0  0
  1  2  1  0
  2  3  1  0
  3  4  1  0
  4  5  1  0
  5  6  1  0
  5  7  1  0
  5  8  1  0
  8  9  2  0
  8 10  2  0
  8 11  1  0
  4 12  1  0
  4 13  1  0
  3 14  1  0
  3 15  1  0
  2 16  1  0
  2 17  1  0
  1 18  1  0
 18 19  1  0
 19 20  1  0
 20 21  1  0
 20 22  1  0
 20 23  1  0
 19 24  1  0
 19 25  1  0
 18 26  1  0
 18 27  1  0
  1 28  1  0
  1 29  1  0
M  END
$$$$
