
     RDKit          3D

 29 28  0  0  0  0  0  0  0  0999 V2000
    5.4320   10.3559    1.5730 C   0  0  0  0  0  0  0  0  0  0  0  0
    6.2281   11.5027    2.0825 C   0  0  0  0  0  0  0  0  0  0  0  0
    7.7173   11.3756    2.0628 C   0  0  0  0  0  0  0  0  0  0  0  0
    8.3592   12.5721    2.7073 C   0  0  0  0  0  0  0  0  0  0  0  0
    9.8287   12.6598    2.7491 C   0  0  0  0  0  0  0  0  0  0  0  0
   10.4377   13.0458    1.5702 F   0  0  0  0  0  0  0  0  0  0  0  0
   10.5163   11.6013    3.2724 F   0  0  0  0  0  0  0  0  0  0  0  0
   10.1889   14.0011    3.9564 S   0  0  0  0  0  0  0  0  0  0  0  0
    9.7087   13.4836    5.2653 O   0  0  0  0  0  0  0  0  0  0  0  0
    9.4595   15.2243    3.4915 O   0  0  0  0  0  0  0  0  0  0  0  0
   11.8428   14.1826    3.9747 O   0  0  0  0  0  0  0  0  0  0  0  0
    7.8001   13.7270    2.1152 F   0  0  0  0  0  0  0  0  0  0  0  0
    7.9228   12.6926    4.0449 F   0  0  0  0  0  0  0  0  0  0  0  0
    8.1067   10.2006    2.7228 F   0  0  0  0  0  0  0  0  0  0  0  0
    8.2563   11.2271    0.7933 F   0  0  0  0  0  0  0  0  0  0  0  0
    5.8744   12.7110    1.5594 F   0  0  0  0  0  0  0  0  0  0  0  0
    5.9200   11.5509    3.4802 F   0  0  0  0  0  0  0  0  0  0  0  0
    3.9634   10.3644    1.6826 C   0  0  0  0  0  0  0  0  0  0  0  0
    3.1959    9.1522    1.3418 C   0  0  0  0  0  0  0  0  0  0  0  0
    1.7356    9.2882    1.0726 C   0  0  0  0  0  0  0  0  0  0  0  0
    1.2600    7.9527    0.9924 F   0  0  0  0  0  0  0  0  0  0  0  0
    1.0563    9.8360    2.1421 F   0  0  0  0  0  0  0  0  0  0  0  0
    1.3745    9.9472   -0.0576 F   0  0  0  0  0  0  0  0  0  0  0  0
    3.8340    8.4749    0.2974 F   0  0  0  0  0  0  0  0  0  0  0  0
    3.3075    8.2785    2.4250 F   0  0  0  0  0  0  0  0  0  0  0  0
    3.5139   10.8248    2.9311 F   0  0  0  0  0  0  0  0  0  0  0  0
    3.4539   11.3832    0.8064 F   0  0  0  0  0  0  0  0  0  0  0  0
    5.7466   10.1379    0.2007 F   0  0  0  0  0  0  0  0  0  0  0  0
    5.9323    9.2004    2.1721 F   0  0  0  0  0  0  0  0  0  0  0  0
  1  2  1  0
  2  3  1  0
  3  4  1  0
  4  5  1  0
  5  6  1  0
  5  7  1  0
  5  8  1  0
  8  9  2  0
  8 10  2  0
  8 11  1  0
  4 12  1  0
  4 13  1  0
  3 14  1  0
  3 15  1  0
  2 16  1  0
  2 17  1  0
  1 18  1  0
 18 19  1  0
 19 20  1  0
 20 21  1  0
 20 22  1  0
 20 23  1  0
 19 24  1  0
 19 25  1  0
 18 26  1  0
 18 27  1  0
  1 28  1  0
  1 29  1  0
M  END
$$$$
