
     RDKit          3D

 29 28  0  0  0  0  0  0  0  0999 V2000
   -8.8465    1.3327    4.2425 C   0  0  0  0  0  0  0  0  0  0  0  0
   -7.9536    0.1814    3.8838 C   0  0  0  0  0  0  0  0  0  0  0  0
   -8.3813   -0.6865    2.7710 C   0  0  0  0  0  0  0  0  0  0  0  0
   -7.5861   -1.9212    2.5016 C   0  0  0  0  0  0  0  0  0  0  0  0
   -8.1666   -2.9333    1.5906 C   0  0  0  0  0  0  0  0  0  0  0  0
   -9.4851   -3.2047    1.9190 F   0  0  0  0  0  0  0  0  0  0  0  0
   -8.0425   -2.7405    0.2597 F   0  0  0  0  0  0  0  0  0  0  0  0
   -7.2909   -4.4822    1.9464 S   0  0  0  0  0  0  0  0  0  0  0  0
   -7.3750   -4.7930    3.4217 O   0  0  0  0  0  0  0  0  0  0  0  0
   -7.8838   -5.6109    1.1769 O   0  0  0  0  0  0  0  0  0  0  0  0
   -5.6675   -4.3107    1.5601 O   0  0  0  0  0  0  0  0  0  0  0  0
   -7.4840   -2.5572    3.7545 F   0  0  0  0  0  0  0  0  0  0  0  0
   -6.2689   -1.6356    2.1767 F   0  0  0  0  0  0  0  0  0  0  0  0
   -8.4850   -0.0597    1.5282 F   0  0  0  0  0  0  0  0  0  0  0  0
   -9.6790   -1.1347    3.0851 F   0  0  0  0  0  0  0  0  0  0  0  0
   -7.8874   -0.5994    5.0555 F   0  0  0  0  0  0  0  0  0  0  0  0
   -6.6922    0.7360    3.6404 F   0  0  0  0  0  0  0  0  0  0  0  0
   -8.4896    2.2058    5.3629 C   0  0  0  0  0  0  0  0  0  0  0  0
   -9.4825    3.1701    5.9038 C   0  0  0  0  0  0  0  0  0  0  0  0
   -9.0538    4.0211    7.0450 C   0  0  0  0  0  0  0  0  0  0  0  0
   -8.6112    3.2006    8.0951 F   0  0  0  0  0  0  0  0  0  0  0  0
  -10.1937    4.6837    7.5418 F   0  0  0  0  0  0  0  0  0  0  0  0
   -8.1320    4.9766    6.8298 F   0  0  0  0  0  0  0  0  0  0  0  0
  -10.5299    2.3607    6.4076 F   0  0  0  0  0  0  0  0  0  0  0  0
  -10.1251    3.9191    4.9138 F   0  0  0  0  0  0  0  0  0  0  0  0
   -7.9304    1.5679    6.4696 F   0  0  0  0  0  0  0  0  0  0  0  0
   -7.4030    3.0348    4.9303 F   0  0  0  0  0  0  0  0  0  0  0  0
   -8.9941    2.1696    3.0997 F   0  0  0  0  0  0  0  0  0  0  0  0
  -10.1527    0.8418    4.4314 F   0  0  0  0  0  0  0  0  0  0  0  0
  1  2  1  0
  2  3  1  0
  3  4  1  0
  4  5  1  0
  5  6  1  0
  5  7  1  0
  5  8  1  0
  8  9  2  0
  8 10  2  0
  8 11  1  0
  4 12  1  0
  4 13  1  0
  3 14  1  0
  3 15  1  0
  2 16  1  0
  2 17  1  0
  1 18  1  0
 18 19  1  0
 19 20  1  0
 20 21  1  0
 20 22  1  0
 20 23  1  0
 19 24  1  0
 19 25  1  0
 18 26  1  0
 18 27  1  0
  1 28  1  0
  1 29  1  0
M  END
$$$$
