
     RDKit          3D

 29 28  0  0  0  0  0  0  0  0999 V2000
    3.9394   -6.0219    2.6606 C   0  0  0  0  0  0  0  0  0  0  0  0
    3.3930   -7.4193    2.6661 C   0  0  0  0  0  0  0  0  0  0  0  0
    1.9528   -7.5847    2.3963 C   0  0  0  0  0  0  0  0  0  0  0  0
    1.3271   -8.9008    2.7212 C   0  0  0  0  0  0  0  0  0  0  0  0
   -0.1466   -9.0080    2.6299 C   0  0  0  0  0  0  0  0  0  0  0  0
   -0.7676   -8.0748    3.4441 F   0  0  0  0  0  0  0  0  0  0  0  0
   -0.7115   -9.0136    1.4032 F   0  0  0  0  0  0  0  0  0  0  0  0
   -0.5755  -10.6057    3.3755 S   0  0  0  0  0  0  0  0  0  0  0  0
   -0.2230  -11.7266    2.4270 O   0  0  0  0  0  0  0  0  0  0  0  0
    0.1586  -10.8031    4.6560 O   0  0  0  0  0  0  0  0  0  0  0  0
   -2.2301  -10.6744    3.6427 O   0  0  0  0  0  0  0  0  0  0  0  0
    1.6364   -9.1146    4.0788 F   0  0  0  0  0  0  0  0  0  0  0  0
    1.9578   -9.9541    2.0771 F   0  0  0  0  0  0  0  0  0  0  0  0
    1.5552   -7.3233    1.0842 F   0  0  0  0  0  0  0  0  0  0  0  0
    1.2816   -6.6401    3.1968 F   0  0  0  0  0  0  0  0  0  0  0  0
    3.6603   -7.9034    3.9627 F   0  0  0  0  0  0  0  0  0  0  0  0
    4.1681   -8.1374    1.7487 F   0  0  0  0  0  0  0  0  0  0  0  0
    4.1473   -5.3192    3.9286 C   0  0  0  0  0  0  0  0  0  0  0  0
    4.6702   -3.9282    3.9346 C   0  0  0  0  0  0  0  0  0  0  0  0
    3.7484   -2.8559    4.3936 C   0  0  0  0  0  0  0  0  0  0  0  0
    3.8652   -2.7077    5.7851 F   0  0  0  0  0  0  0  0  0  0  0  0
    2.4285   -3.2973    4.1731 F   0  0  0  0  0  0  0  0  0  0  0  0
    3.8343   -1.6404    3.8242 F   0  0  0  0  0  0  0  0  0  0  0  0
    4.9378   -3.6405    2.5739 F   0  0  0  0  0  0  0  0  0  0  0  0
    5.9321   -3.8122    4.5247 F   0  0  0  0  0  0  0  0  0  0  0  0
    3.0638   -5.3266    4.8063 F   0  0  0  0  0  0  0  0  0  0  0  0
    5.1243   -6.0587    4.6726 F   0  0  0  0  0  0  0  0  0  0  0  0
    5.1910   -6.0234    1.9812 F   0  0  0  0  0  0  0  0  0  0  0  0
    3.1354   -5.2323    1.8161 F   0  0  0  0  0  0  0  0  0  0  0  0
  1  2  1  0
  2  3  1  0
  3  4  1  0
  4  5  1  0
  5  6  1  0
  5  7  1  0
  5  8  1  0
  8  9  2  0
  8 10  2  0
  8 11  1  0
  4 12  1  0
  4 13  1  0
  3 14  1  0
  3 15  1  0
  2 16  1  0
  2 17  1  0
  1 18  1  0
 18 19  1  0
 19 20  1  0
 20 21  1  0
 20 22  1  0
 20 23  1  0
 19 24  1  0
 19 25  1  0
 18 26  1  0
 18 27  1  0
  1 28  1  0
  1 29  1  0
M  END
$$$$
