
     RDKit          3D

 29 28  0  0  0  0  0  0  0  0999 V2000
    4.4098   -5.3230    4.6123 C   0  0  0  0  0  0  0  0  0  0  0  0
    4.5711   -6.7456    5.0613 C   0  0  0  0  0  0  0  0  0  0  0  0
    3.3445   -7.4958    5.3886 C   0  0  0  0  0  0  0  0  0  0  0  0
    3.4789   -8.9456    5.7193 C   0  0  0  0  0  0  0  0  0  0  0  0
    2.2899   -9.6466    6.2544 C   0  0  0  0  0  0  0  0  0  0  0  0
    1.9858   -9.2109    7.5340 F   0  0  0  0  0  0  0  0  0  0  0  0
    1.1754   -9.6861    5.4927 F   0  0  0  0  0  0  0  0  0  0  0  0
    2.7923  -11.3756    6.4799 S   0  0  0  0  0  0  0  0  0  0  0  0
    4.0918  -11.4373    7.2465 O   0  0  0  0  0  0  0  0  0  0  0  0
    1.7504  -12.1334    7.2268 O   0  0  0  0  0  0  0  0  0  0  0  0
    3.0575  -12.0830    4.9822 O   0  0  0  0  0  0  0  0  0  0  0  0
    4.4360   -8.9862    6.7522 F   0  0  0  0  0  0  0  0  0  0  0  0
    4.0785   -9.6631    4.6957 F   0  0  0  0  0  0  0  0  0  0  0  0
    2.3383   -7.4496    4.4226 F   0  0  0  0  0  0  0  0  0  0  0  0
    2.7999   -6.8953    6.5403 F   0  0  0  0  0  0  0  0  0  0  0  0
    5.3666   -6.6669    6.2223 F   0  0  0  0  0  0  0  0  0  0  0  0
    5.3047   -7.3842    4.0553 F   0  0  0  0  0  0  0  0  0  0  0  0
    5.4117   -4.7233    3.7282 C   0  0  0  0  0  0  0  0  0  0  0  0
    5.3518   -3.2738    3.4063 C   0  0  0  0  0  0  0  0  0  0  0  0
    6.5767   -2.6507    2.8394 C   0  0  0  0  0  0  0  0  0  0  0  0
    6.8715   -3.2479    1.6032 F   0  0  0  0  0  0  0  0  0  0  0  0
    7.6577   -2.9790    3.6816 F   0  0  0  0  0  0  0  0  0  0  0  0
    6.6138   -1.3146    2.6898 F   0  0  0  0  0  0  0  0  0  0  0  0
    5.1469   -2.6380    4.6552 F   0  0  0  0  0  0  0  0  0  0  0  0
    4.2083   -2.9115    2.6885 F   0  0  0  0  0  0  0  0  0  0  0  0
    6.7407   -4.9902    4.0550 F   0  0  0  0  0  0  0  0  0  0  0  0
    5.2956   -5.3657    2.4519 F   0  0  0  0  0  0  0  0  0  0  0  0
    3.1518   -5.1903    3.9580 F   0  0  0  0  0  0  0  0  0  0  0  0
    4.2478   -4.5116    5.7517 F   0  0  0  0  0  0  0  0  0  0  0  0
  1  2  1  0
  2  3  1  0
  3  4  1  0
  4  5  1  0
  5  6  1  0
  5  7  1  0
  5  8  1  0
  8  9  2  0
  8 10  2  0
  8 11  1  0
  4 12  1  0
  4 13  1  0
  3 14  1  0
  3 15  1  0
  2 16  1  0
  2 17  1  0
  1 18  1  0
 18 19  1  0
 19 20  1  0
 20 21  1  0
 20 22  1  0
 20 23  1  0
 19 24  1  0
 19 25  1  0
 18 26  1  0
 18 27  1  0
  1 28  1  0
  1 29  1  0
M  END
$$$$
