
     RDKit          3D

 29 28  0  0  0  0  0  0  0  0999 V2000
    4.4027   -6.5800    5.7248 C   0  0  0  0  0  0  0  0  0  0  0  0
    3.8805   -7.9836    5.6320 C   0  0  0  0  0  0  0  0  0  0  0  0
    4.3193   -8.9394    6.6657 C   0  0  0  0  0  0  0  0  0  0  0  0
    3.6960  -10.2962    6.6732 C   0  0  0  0  0  0  0  0  0  0  0  0
    4.2136  -11.2902    7.6404 C   0  0  0  0  0  0  0  0  0  0  0  0
    5.5399  -11.5965    7.3819 F   0  0  0  0  0  0  0  0  0  0  0  0
    4.0326  -11.0536    8.9577 F   0  0  0  0  0  0  0  0  0  0  0  0
    3.3237  -12.8326    7.2916 S   0  0  0  0  0  0  0  0  0  0  0  0
    3.3329  -13.1066    5.8066 O   0  0  0  0  0  0  0  0  0  0  0  0
    3.9574  -13.9780    8.0015 O   0  0  0  0  0  0  0  0  0  0  0  0
    1.7219  -12.6759    7.7644 O   0  0  0  0  0  0  0  0  0  0  0  0
    3.9838  -10.8253    5.3997 F   0  0  0  0  0  0  0  0  0  0  0  0
    2.3111  -10.2365    6.6922 F   0  0  0  0  0  0  0  0  0  0  0  0
    4.2011   -8.4933    7.9829 F   0  0  0  0  0  0  0  0  0  0  0  0
    5.6947   -9.1573    6.4554 F   0  0  0  0  0  0  0  0  0  0  0  0
    4.3262   -8.4496    4.3786 F   0  0  0  0  0  0  0  0  0  0  0  0
    2.4860   -7.8724    5.6012 F   0  0  0  0  0  0  0  0  0  0  0  0
    3.9019   -5.5573    4.8038 C   0  0  0  0  0  0  0  0  0  0  0  0
    4.2031   -4.1224    5.0459 C   0  0  0  0  0  0  0  0  0  0  0  0
    3.7959   -3.1540    3.9940 C   0  0  0  0  0  0  0  0  0  0  0  0
    2.4171   -2.9089    4.0975 F   0  0  0  0  0  0  0  0  0  0  0  0
    3.9730   -3.7762    2.7422 F   0  0  0  0  0  0  0  0  0  0  0  0
    4.4365   -1.9739    3.9170 F   0  0  0  0  0  0  0  0  0  0  0  0
    5.6171   -4.0566    5.0941 F   0  0  0  0  0  0  0  0  0  0  0  0
    3.8338   -3.6853    6.3213 F   0  0  0  0  0  0  0  0  0  0  0  0
    4.1638   -5.7827    3.4529 F   0  0  0  0  0  0  0  0  0  0  0  0
    2.4700   -5.6194    4.8327 F   0  0  0  0  0  0  0  0  0  0  0  0
    4.1735   -6.0936    7.0436 F   0  0  0  0  0  0  0  0  0  0  0  0
    5.8085   -6.6219    5.6556 F   0  0  0  0  0  0  0  0  0  0  0  0
  1  2  1  0
  2  3  1  0
  3  4  1  0
  4  5  1  0
  5  6  1  0
  5  7  1  0
  5  8  1  0
  8  9  2  0
  8 10  2  0
  8 11  1  0
  4 12  1  0
  4 13  1  0
  3 14  1  0
  3 15  1  0
  2 16  1  0
  2 17  1  0
  1 18  1  0
 18 19  1  0
 19 20  1  0
 20 21  1  0
 20 22  1  0
 20 23  1  0
 19 24  1  0
 19 25  1  0
 18 26  1  0
 18 27  1  0
  1 28  1  0
  1 29  1  0
M  END
$$$$
