
     RDKit          3D

 29 28  0  0  0  0  0  0  0  0999 V2000
    1.0900   -4.9696    3.3650 C   0  0  0  0  0  0  0  0  0  0  0  0
   -0.3274   -5.2102    2.9357 C   0  0  0  0  0  0  0  0  0  0  0  0
   -1.3949   -4.8298    3.8792 C   0  0  0  0  0  0  0  0  0  0  0  0
   -2.7802   -5.3111    3.5989 C   0  0  0  0  0  0  0  0  0  0  0  0
   -3.8621   -4.8751    4.5103 C   0  0  0  0  0  0  0  0  0  0  0  0
   -3.5499   -5.1595    5.8299 F   0  0  0  0  0  0  0  0  0  0  0  0
   -4.3216   -3.6103    4.3967 F   0  0  0  0  0  0  0  0  0  0  0  0
   -5.2801   -5.9474    4.1467 S   0  0  0  0  0  0  0  0  0  0  0  0
   -5.8121   -5.6454    2.7660 O   0  0  0  0  0  0  0  0  0  0  0  0
   -4.8860   -7.3819    4.2131 O   0  0  0  0  0  0  0  0  0  0  0  0
   -6.5136   -5.6369    5.2402 O   0  0  0  0  0  0  0  0  0  0  0  0
   -2.7056   -6.7102    3.7458 F   0  0  0  0  0  0  0  0  0  0  0  0
   -3.1335   -5.1450    2.2686 F   0  0  0  0  0  0  0  0  0  0  0  0
   -1.5392   -3.4592    4.0996 F   0  0  0  0  0  0  0  0  0  0  0  0
   -1.0477   -5.3852    5.1260 F   0  0  0  0  0  0  0  0  0  0  0  0
   -0.4041   -6.6003    2.7155 F   0  0  0  0  0  0  0  0  0  0  0  0
   -0.4735   -4.5514    1.7099 F   0  0  0  0  0  0  0  0  0  0  0  0
    2.1926   -5.4592    2.5347 C   0  0  0  0  0  0  0  0  0  0  0  0
    3.5973   -5.1238    2.8848 C   0  0  0  0  0  0  0  0  0  0  0  0
    4.6613   -5.5966    1.9605 C   0  0  0  0  0  0  0  0  0  0  0  0
    4.7367   -6.9977    2.0176 F   0  0  0  0  0  0  0  0  0  0  0  0
    5.8979   -5.1342    2.4527 F   0  0  0  0  0  0  0  0  0  0  0  0
    4.6110   -5.2223    0.6696 F   0  0  0  0  0  0  0  0  0  0  0  0
    3.8318   -5.7975    4.1084 F   0  0  0  0  0  0  0  0  0  0  0  0
    3.7766   -3.7826    3.2360 F   0  0  0  0  0  0  0  0  0  0  0  0
    2.1803   -6.8266    2.2618 F   0  0  0  0  0  0  0  0  0  0  0  0
    2.0211   -4.9037    1.2243 F   0  0  0  0  0  0  0  0  0  0  0  0
    1.2871   -3.5683    3.5258 F   0  0  0  0  0  0  0  0  0  0  0  0
    1.2458   -5.4518    4.6788 F   0  0  0  0  0  0  0  0  0  0  0  0
  1  2  1  0
  2  3  1  0
  3  4  1  0
  4  5  1  0
  5  6  1  0
  5  7  1  0
  5  8  1  0
  8  9  2  0
  8 10  2  0
  8 11  1  0
  4 12  1  0
  4 13  1  0
  3 14  1  0
  3 15  1  0
  2 16  1  0
  2 17  1  0
  1 18  1  0
 18 19  1  0
 19 20  1  0
 20 21  1  0
 20 22  1  0
 20 23  1  0
 19 24  1  0
 19 25  1  0
 18 26  1  0
 18 27  1  0
  1 28  1  0
  1 29  1  0
M  END
$$$$
