
     RDKit          3D

 29 28  0  0  0  0  0  0  0  0999 V2000
   12.9772   11.3290    3.0578 C   0  0  0  0  0  0  0  0  0  0  0  0
   12.7622   11.3700    1.5891 C   0  0  0  0  0  0  0  0  0  0  0  0
   13.8858   10.9565    0.6982 C   0  0  0  0  0  0  0  0  0  0  0  0
   13.4637   11.3601   -0.7041 C   0  0  0  0  0  0  0  0  0  0  0  0
   14.4554   11.1458   -1.7774 C   0  0  0  0  0  0  0  0  0  0  0  0
   14.8637    9.8223   -1.8899 F   0  0  0  0  0  0  0  0  0  0  0  0
   15.6269   11.8298   -1.3229 F   0  0  0  0  0  0  0  0  0  0  0  0
   14.1127   11.8732   -3.3424 S   0  0  0  0  0  0  0  0  0  0  0  0
   13.2993   13.1340   -3.1073 O   0  0  0  0  0  0  0  0  0  0  0  0
   13.1856   10.9217   -4.0970 O   0  0  0  0  0  0  0  0  0  0  0  0
   15.4392   12.2600   -4.2397 O   0  0  0  0  0  0  0  0  0  0  0  0
   13.1695   12.7236   -0.6235 F   0  0  0  0  0  0  0  0  0  0  0  0
   12.2794   10.7292   -1.0393 F   0  0  0  0  0  0  0  0  0  0  0  0
   15.0366   11.7310    0.9368 F   0  0  0  0  0  0  0  0  0  0  0  0
   14.1989    9.6477    0.7917 F   0  0  0  0  0  0  0  0  0  0  0  0
   11.6515   10.5766    1.2436 F   0  0  0  0  0  0  0  0  0  0  0  0
   12.3867   12.6462    1.1458 F   0  0  0  0  0  0  0  0  0  0  0  0
   11.8506   11.7312    3.9102 C   0  0  0  0  0  0  0  0  0  0  0  0
   12.1006   11.8733    5.3822 C   0  0  0  0  0  0  0  0  0  0  0  0
   10.9350   12.0059    6.2768 C   0  0  0  0  0  0  0  0  0  0  0  0
   11.2787   12.1646    7.6166 F   0  0  0  0  0  0  0  0  0  0  0  0
    9.9617   12.8854    5.8571 F   0  0  0  0  0  0  0  0  0  0  0  0
   10.2540   10.7626    6.2875 F   0  0  0  0  0  0  0  0  0  0  0  0
   12.8638   13.0398    5.5053 F   0  0  0  0  0  0  0  0  0  0  0  0
   12.9204   10.8700    5.8659 F   0  0  0  0  0  0  0  0  0  0  0  0
   10.6986   11.0114    3.7269 F   0  0  0  0  0  0  0  0  0  0  0  0
   11.5250   13.0569    3.5180 F   0  0  0  0  0  0  0  0  0  0  0  0
   14.1145   12.1152    3.3298 F   0  0  0  0  0  0  0  0  0  0  0  0
   13.4461   10.0369    3.3264 F   0  0  0  0  0  0  0  0  0  0  0  0
  1  2  1  0
  2  3  1  0
  3  4  1  0
  4  5  1  0
  5  6  1  0
  5  7  1  0
  5  8  1  0
  8  9  2  0
  8 10  2  0
  8 11  1  0
  4 12  1  0
  4 13  1  0
  3 14  1  0
  3 15  1  0
  2 16  1  0
  2 17  1  0
  1 18  1  0
 18 19  1  0
 19 20  1  0
 20 21  1  0
 20 22  1  0
 20 23  1  0
 19 24  1  0
 19 25  1  0
 18 26  1  0
 18 27  1  0
  1 28  1  0
  1 29  1  0
M  END
$$$$
