
     RDKit          3D

 29 28  0  0  0  0  0  0  0  0999 V2000
  -14.2771    2.5776   12.1873 C   0  0  0  0  0  0  0  0  0  0  0  0
  -15.7030    2.9310   11.9702 C   0  0  0  0  0  0  0  0  0  0  0  0
  -16.0197    4.2717   11.3962 C   0  0  0  0  0  0  0  0  0  0  0  0
  -17.5346    4.3800   11.4254 C   0  0  0  0  0  0  0  0  0  0  0  0
  -18.0988    5.7425   11.3449 C   0  0  0  0  0  0  0  0  0  0  0  0
  -17.7552    6.4097   10.1754 F   0  0  0  0  0  0  0  0  0  0  0  0
  -17.4179    6.4720   12.3699 F   0  0  0  0  0  0  0  0  0  0  0  0
  -19.8023    5.9294   11.7433 S   0  0  0  0  0  0  0  0  0  0  0  0
  -20.0294    5.3433   13.1258 O   0  0  0  0  0  0  0  0  0  0  0  0
  -20.5970    5.0426   10.7861 O   0  0  0  0  0  0  0  0  0  0  0  0
  -20.3580    7.4804   11.7294 O   0  0  0  0  0  0  0  0  0  0  0  0
  -17.9234    3.7982   12.6347 F   0  0  0  0  0  0  0  0  0  0  0  0
  -18.0821    3.5955   10.4265 F   0  0  0  0  0  0  0  0  0  0  0  0
  -15.5941    5.3054   12.2514 F   0  0  0  0  0  0  0  0  0  0  0  0
  -15.5068    4.4692   10.1642 F   0  0  0  0  0  0  0  0  0  0  0  0
  -16.3141    1.9737   11.1380 F   0  0  0  0  0  0  0  0  0  0  0  0
  -16.4539    2.8456   13.1513 F   0  0  0  0  0  0  0  0  0  0  0  0
  -14.0002    1.3484   12.9423 C   0  0  0  0  0  0  0  0  0  0  0  0
  -12.6177    1.1597   13.4924 C   0  0  0  0  0  0  0  0  0  0  0  0
  -12.3551   -0.0317   14.3219 C   0  0  0  0  0  0  0  0  0  0  0  0
  -12.8251   -1.2150   13.7587 F   0  0  0  0  0  0  0  0  0  0  0  0
  -11.0755   -0.1374   14.8206 F   0  0  0  0  0  0  0  0  0  0  0  0
  -13.1434    0.0755   15.4952 F   0  0  0  0  0  0  0  0  0  0  0  0
  -12.3915    2.2882   14.2884 F   0  0  0  0  0  0  0  0  0  0  0  0
  -11.6538    1.2340   12.5034 F   0  0  0  0  0  0  0  0  0  0  0  0
  -14.3906    0.1883   12.3253 F   0  0  0  0  0  0  0  0  0  0  0  0
  -14.7963    1.4296   14.1158 F   0  0  0  0  0  0  0  0  0  0  0  0
  -13.6661    3.6889   12.8013 F   0  0  0  0  0  0  0  0  0  0  0  0
  -13.6950    2.5927   10.9135 F   0  0  0  0  0  0  0  0  0  0  0  0
  1  2  1  0
  2  3  1  0
  3  4  1  0
  4  5  1  0
  5  6  1  0
  5  7  1  0
  5  8  1  0
  8  9  2  0
  8 10  2  0
  8 11  1  0
  4 12  1  0
  4 13  1  0
  3 14  1  0
  3 15  1  0
  2 16  1  0
  2 17  1  0
  1 18  1  0
 18 19  1  0
 19 20  1  0
 20 21  1  0
 20 22  1  0
 20 23  1  0
 19 24  1  0
 19 25  1  0
 18 26  1  0
 18 27  1  0
  1 28  1  0
  1 29  1  0
M  END
$$$$
