
     RDKit          3D

 29 28  0  0  0  0  0  0  0  0999 V2000
   13.6798    2.8282   15.2000 C   0  0  0  0  0  0  0  0  0  0  0  0
   13.8986    4.2734   15.4622 C   0  0  0  0  0  0  0  0  0  0  0  0
   14.4591    4.6750   16.7858 C   0  0  0  0  0  0  0  0  0  0  0  0
   15.6033    5.6238   16.4729 C   0  0  0  0  0  0  0  0  0  0  0  0
   16.4814    5.9911   17.6022 C   0  0  0  0  0  0  0  0  0  0  0  0
   17.2475    4.9297   18.0685 F   0  0  0  0  0  0  0  0  0  0  0  0
   15.5813    6.2653   18.6798 F   0  0  0  0  0  0  0  0  0  0  0  0
   17.4203    7.4702   17.4393 S   0  0  0  0  0  0  0  0  0  0  0  0
   16.4575    8.6101   17.1566 O   0  0  0  0  0  0  0  0  0  0  0  0
   18.2757    7.3339   16.1807 O   0  0  0  0  0  0  0  0  0  0  0  0
   18.3363    7.8654   18.7505 O   0  0  0  0  0  0  0  0  0  0  0  0
   14.9986    6.7799   15.9732 F   0  0  0  0  0  0  0  0  0  0  0  0
   16.3700    5.1129   15.4414 F   0  0  0  0  0  0  0  0  0  0  0  0
   13.5490    5.4739   17.5031 F   0  0  0  0  0  0  0  0  0  0  0  0
   14.8412    3.6325   17.5519 F   0  0  0  0  0  0  0  0  0  0  0  0
   14.7437    4.8182   14.4765 F   0  0  0  0  0  0  0  0  0  0  0  0
   12.7215    5.0209   15.3148 F   0  0  0  0  0  0  0  0  0  0  0  0
   13.0658    2.4670   13.9154 C   0  0  0  0  0  0  0  0  0  0  0  0
   12.8092    1.0143   13.6447 C   0  0  0  0  0  0  0  0  0  0  0  0
   12.1473    0.6485   12.3780 C   0  0  0  0  0  0  0  0  0  0  0  0
   12.7915    1.1494   11.2500 F   0  0  0  0  0  0  0  0  0  0  0  0
   11.7889   -0.6759   12.2565 F   0  0  0  0  0  0  0  0  0  0  0  0
   10.8990    1.3189   12.3326 F   0  0  0  0  0  0  0  0  0  0  0  0
   11.9808    0.5953   14.6918 F   0  0  0  0  0  0  0  0  0  0  0  0
   13.9554    0.2529   13.7833 F   0  0  0  0  0  0  0  0  0  0  0  0
   13.6599    3.0222   12.8120 F   0  0  0  0  0  0  0  0  0  0  0  0
   11.7563    3.0163   13.9466 F   0  0  0  0  0  0  0  0  0  0  0  0
   12.9210    2.3247   16.2752 F   0  0  0  0  0  0  0  0  0  0  0  0
   14.9242    2.2218   15.4134 F   0  0  0  0  0  0  0  0  0  0  0  0
  1  2  1  0
  2  3  1  0
  3  4  1  0
  4  5  1  0
  5  6  1  0
  5  7  1  0
  5  8  1  0
  8  9  2  0
  8 10  2  0
  8 11  1  0
  4 12  1  0
  4 13  1  0
  3 14  1  0
  3 15  1  0
  2 16  1  0
  2 17  1  0
  1 18  1  0
 18 19  1  0
 19 20  1  0
 20 21  1  0
 20 22  1  0
 20 23  1  0
 19 24  1  0
 19 25  1  0
 18 26  1  0
 18 27  1  0
  1 28  1  0
  1 29  1  0
M  END
$$$$
