
     RDKit          3D

 29 28  0  0  0  0  0  0  0  0999 V2000
  -12.4418    0.8629   13.9449 C   0  0  0  0  0  0  0  0  0  0  0  0
  -13.4980    1.9038   13.8676 C   0  0  0  0  0  0  0  0  0  0  0  0
  -13.0828    3.3367   13.9054 C   0  0  0  0  0  0  0  0  0  0  0  0
  -14.3726    4.1366   13.8400 C   0  0  0  0  0  0  0  0  0  0  0  0
  -14.2563    5.5923   14.0609 C   0  0  0  0  0  0  0  0  0  0  0  0
  -13.4234    6.2209   13.1433 F   0  0  0  0  0  0  0  0  0  0  0  0
  -13.5530    5.7102   15.3011 F   0  0  0  0  0  0  0  0  0  0  0  0
  -15.7493    6.4845   14.3266 S   0  0  0  0  0  0  0  0  0  0  0  0
  -16.5199    5.7922   15.4371 O   0  0  0  0  0  0  0  0  0  0  0  0
  -16.6070    6.3270   13.0721 O   0  0  0  0  0  0  0  0  0  0  0  0
  -15.5546    8.0705   14.7281 O   0  0  0  0  0  0  0  0  0  0  0  0
  -15.1959    3.5917   14.8287 F   0  0  0  0  0  0  0  0  0  0  0  0
  -15.0107    3.9036   12.6353 F   0  0  0  0  0  0  0  0  0  0  0  0
  -12.5414    3.6773   15.1592 F   0  0  0  0  0  0  0  0  0  0  0  0
  -12.2104    3.6746   12.9336 F   0  0  0  0  0  0  0  0  0  0  0  0
  -14.2608    1.7284   12.6971 F   0  0  0  0  0  0  0  0  0  0  0  0
  -14.4508    1.7659   14.8870 F   0  0  0  0  0  0  0  0  0  0  0  0
  -12.8738   -0.5373   13.8432 C   0  0  0  0  0  0  0  0  0  0  0  0
  -13.1000   -1.1037   12.4730 C   0  0  0  0  0  0  0  0  0  0  0  0
  -13.8579   -2.3642   12.3570 C   0  0  0  0  0  0  0  0  0  0  0  0
  -15.1590   -2.2766   12.8446 F   0  0  0  0  0  0  0  0  0  0  0  0
  -13.7761   -2.9956   11.1357 F   0  0  0  0  0  0  0  0  0  0  0  0
  -13.2700   -3.3054   13.2392 F   0  0  0  0  0  0  0  0  0  0  0  0
  -11.8169   -1.3326   11.9634 F   0  0  0  0  0  0  0  0  0  0  0  0
  -13.6532   -0.1718   11.6138 F   0  0  0  0  0  0  0  0  0  0  0  0
  -13.9362   -0.8759   14.6404 F   0  0  0  0  0  0  0  0  0  0  0  0
  -11.7862   -1.3120   14.3273 F   0  0  0  0  0  0  0  0  0  0  0  0
  -11.7350    1.0814   15.1441 F   0  0  0  0  0  0  0  0  0  0  0  0
  -11.4946    1.2257   12.9790 F   0  0  0  0  0  0  0  0  0  0  0  0
  1  2  1  0
  2  3  1  0
  3  4  1  0
  4  5  1  0
  5  6  1  0
  5  7  1  0
  5  8  1  0
  8  9  2  0
  8 10  2  0
  8 11  1  0
  4 12  1  0
  4 13  1  0
  3 14  1  0
  3 15  1  0
  2 16  1  0
  2 17  1  0
  1 18  1  0
 18 19  1  0
 19 20  1  0
 20 21  1  0
 20 22  1  0
 20 23  1  0
 19 24  1  0
 19 25  1  0
 18 26  1  0
 18 27  1  0
  1 28  1  0
  1 29  1  0
M  END
$$$$
