
     RDKit          3D

 25 24  0  0  0  0  0  0  0  0999 V2000
    4.7421  -14.1820   -8.2106 C   0  0  0  0  0  0  0  0  0  0  0  0
    5.0402  -13.9706   -7.0051 O   0  0  0  0  0  0  0  0  0  0  0  0
    3.2744  -14.2635   -8.6261 C   0  0  0  0  0  0  0  0  0  0  0  0
    2.9069  -12.9302   -9.1865 C   0  0  0  0  0  0  0  0  0  0  0  0
    1.4658  -12.7002   -9.4348 C   0  0  0  0  0  0  0  0  0  0  0  0
    1.0320  -11.3261   -9.8495 C   0  0  0  0  0  0  0  0  0  0  0  0
   -0.4798  -11.4363  -10.0805 C   0  0  0  0  0  0  0  0  0  0  0  0
   -1.0926  -10.1113  -10.3889 C   0  0  0  0  0  0  0  0  0  0  0  0
   -2.6101  -10.3365  -10.4076 C   0  0  0  0  0  0  0  0  0  0  0  0
   -2.9981  -11.1315  -11.4488 F   0  0  0  0  0  0  0  0  0  0  0  0
   -3.0622  -10.7597   -9.1743 F   0  0  0  0  0  0  0  0  0  0  0  0
   -3.2090   -9.0855  -10.6096 F   0  0  0  0  0  0  0  0  0  0  0  0
   -0.7717   -9.6378  -11.6370 F   0  0  0  0  0  0  0  0  0  0  0  0
   -0.8042   -9.1459   -9.4702 F   0  0  0  0  0  0  0  0  0  0  0  0
   -1.0040  -11.8774   -8.8782 F   0  0  0  0  0  0  0  0  0  0  0  0
   -0.7468  -12.3380  -11.0618 F   0  0  0  0  0  0  0  0  0  0  0  0
    1.6751  -10.9674  -10.9868 F   0  0  0  0  0  0  0  0  0  0  0  0
    1.2686  -10.3974   -8.8533 F   0  0  0  0  0  0  0  0  0  0  0  0
    0.7047  -13.0877   -8.3310 F   0  0  0  0  0  0  0  0  0  0  0  0
    1.1000  -13.6278  -10.4372 F   0  0  0  0  0  0  0  0  0  0  0  0
    3.4353  -11.8916   -8.4188 F   0  0  0  0  0  0  0  0  0  0  0  0
    3.5495  -12.7985  -10.4275 F   0  0  0  0  0  0  0  0  0  0  0  0
    3.1031  -15.2869   -9.5256 F   0  0  0  0  0  0  0  0  0  0  0  0
    2.6120  -14.5514   -7.4204 F   0  0  0  0  0  0  0  0  0  0  0  0
    5.7473  -14.3392   -9.1527 O   0  0  0  0  0  0  0  0  0  0  0  0
  1  2  2  0
  1  3  1  0
  3  4  1  0
  4  5  1  0
  5  6  1  0
  6  7  1  0
  7  8  1  0
  8  9  1  0
  9 10  1  0
  9 11  1  0
  9 12  1  0
  8 13  1  0
  8 14  1  0
  7 15  1  0
  7 16  1  0
  6 17  1  0
  6 18  1  0
  5 19  1  0
  5 20  1  0
  4 21  1  0
  4 22  1  0
  3 23  1  0
  3 24  1  0
  1 25  1  0
M  END
$$$$
