
     RDKit          3D

 25 24  0  0  0  0  0  0  0  0999 V2000
   -1.9468  -10.8474  -10.7730 C   0  0  0  0  0  0  0  0  0  0  0  0
   -1.8915  -10.2629  -11.8874 O   0  0  0  0  0  0  0  0  0  0  0  0
   -0.6657  -11.0811   -9.9745 C   0  0  0  0  0  0  0  0  0  0  0  0
    0.1288   -9.8201  -10.0492 C   0  0  0  0  0  0  0  0  0  0  0  0
    1.2568   -9.7009   -9.0981 C   0  0  0  0  0  0  0  0  0  0  0  0
    2.2769   -8.6299   -9.3443 C   0  0  0  0  0  0  0  0  0  0  0  0
    3.3277   -8.8172   -8.2435 C   0  0  0  0  0  0  0  0  0  0  0  0
    4.4399   -7.8300   -8.3636 C   0  0  0  0  0  0  0  0  0  0  0  0
    5.5437   -8.3124   -7.4133 C   0  0  0  0  0  0  0  0  0  0  0  0
    5.1271   -8.3347   -6.1123 F   0  0  0  0  0  0  0  0  0  0  0  0
    6.0892   -9.5014   -7.8526 F   0  0  0  0  0  0  0  0  0  0  0  0
    6.5869   -7.3793   -7.4874 F   0  0  0  0  0  0  0  0  0  0  0  0
    4.1024   -6.5710   -7.9324 F   0  0  0  0  0  0  0  0  0  0  0  0
    4.9560   -7.7348   -9.6221 F   0  0  0  0  0  0  0  0  0  0  0  0
    3.8556  -10.0795   -8.4505 F   0  0  0  0  0  0  0  0  0  0  0  0
    2.7477   -8.7524   -7.0160 F   0  0  0  0  0  0  0  0  0  0  0  0
    1.6905   -7.4115   -9.2578 F   0  0  0  0  0  0  0  0  0  0  0  0
    2.8842   -8.7816  -10.5767 F   0  0  0  0  0  0  0  0  0  0  0  0
    1.9225  -10.9202   -8.9636 F   0  0  0  0  0  0  0  0  0  0  0  0
    0.6651   -9.4998   -7.8299 F   0  0  0  0  0  0  0  0  0  0  0  0
    0.5670   -9.5703  -11.3503 F   0  0  0  0  0  0  0  0  0  0  0  0
   -0.7397   -8.7530   -9.7707 F   0  0  0  0  0  0  0  0  0  0  0  0
   -0.9806  -11.4389   -8.6867 F   0  0  0  0  0  0  0  0  0  0  0  0
   -0.0551  -12.1528  -10.6482 F   0  0  0  0  0  0  0  0  0  0  0  0
   -3.1694  -11.2752  -10.2780 O   0  0  0  0  0  0  0  0  0  0  0  0
  1  2  2  0
  1  3  1  0
  3  4  1  0
  4  5  1  0
  5  6  1  0
  6  7  1  0
  7  8  1  0
  8  9  1  0
  9 10  1  0
  9 11  1  0
  9 12  1  0
  8 13  1  0
  8 14  1  0
  7 15  1  0
  7 16  1  0
  6 17  1  0
  6 18  1  0
  5 19  1  0
  5 20  1  0
  4 21  1  0
  4 22  1  0
  3 23  1  0
  3 24  1  0
  1 25  1  0
M  END
$$$$
