
     RDKit          3D

 29 28  0  0  0  0  0  0  0  0999 V2000
   -1.7501   -1.1242  -12.2384 C   0  0  0  0  0  0  0  0  0  0  0  0
   -2.8688   -1.3877  -13.2850 C   0  0  0  0  0  0  0  0  0  0  0  0
   -2.2014   -1.2302  -14.6137 C   0  0  0  0  0  0  0  0  0  0  0  0
   -3.0730   -1.1956  -15.8106 C   0  0  0  0  0  0  0  0  0  0  0  0
   -2.3918   -1.4739  -17.1064 C   0  0  0  0  0  0  0  0  0  0  0  0
   -2.0724   -2.8031  -17.2784 F   0  0  0  0  0  0  0  0  0  0  0  0
   -1.2998   -0.7042  -17.2966 F   0  0  0  0  0  0  0  0  0  0  0  0
   -3.5400   -1.0874  -18.4708 S   0  0  0  0  0  0  0  0  0  0  0  0
   -2.9063   -1.5218  -19.7639 O   0  0  0  0  0  0  0  0  0  0  0  0
   -4.8427   -1.7830  -18.2712 O   0  0  0  0  0  0  0  0  0  0  0  0
   -3.7853    0.5688  -18.5159 O   0  0  0  0  0  0  0  0  0  0  0  0
   -4.1204   -2.1070  -15.5850 F   0  0  0  0  0  0  0  0  0  0  0  0
   -3.6656    0.0819  -15.8596 F   0  0  0  0  0  0  0  0  0  0  0  0
   -1.2869   -2.3021  -14.7118 F   0  0  0  0  0  0  0  0  0  0  0  0
   -1.3803   -0.1138  -14.5147 F   0  0  0  0  0  0  0  0  0  0  0  0
   -3.8063   -0.3671  -13.0591 F   0  0  0  0  0  0  0  0  0  0  0  0
   -3.4105   -2.6261  -13.1484 F   0  0  0  0  0  0  0  0  0  0  0  0
   -2.3696   -1.0999  -10.8941 C   0  0  0  0  0  0  0  0  0  0  0  0
   -1.5132   -0.8978   -9.7183 C   0  0  0  0  0  0  0  0  0  0  0  0
   -2.0621   -1.1720   -8.3712 C   0  0  0  0  0  0  0  0  0  0  0  0
   -3.2398   -0.4217   -8.2945 F   0  0  0  0  0  0  0  0  0  0  0  0
   -1.3130   -0.6743   -7.3175 F   0  0  0  0  0  0  0  0  0  0  0  0
   -2.4837   -2.4620   -8.1528 F   0  0  0  0  0  0  0  0  0  0  0  0
   -0.3368   -1.6299   -9.8274 F   0  0  0  0  0  0  0  0  0  0  0  0
   -1.0984    0.4255   -9.7055 F   0  0  0  0  0  0  0  0  0  0  0  0
   -3.1321   -2.2494  -10.7498 F   0  0  0  0  0  0  0  0  0  0  0  0
   -3.3046   -0.0685  -10.8901 F   0  0  0  0  0  0  0  0  0  0  0  0
   -1.2088    0.0892  -12.6291 F   0  0  0  0  0  0  0  0  0  0  0  0
   -0.8096   -2.0638  -12.4605 F   0  0  0  0  0  0  0  0  0  0  0  0
  1  2  1  0
  2  3  1  0
  3  4  1  0
  4  5  1  0
  5  6  1  0
  5  7  1  0
  5  8  1  0
  8  9  2  0
  8 10  2  0
  8 11  1  0
  4 12  1  0
  4 13  1  0
  3 14  1  0
  3 15  1  0
  2 16  1  0
  2 17  1  0
  1 18  1  0
 18 19  1  0
 19 20  1  0
 20 21  1  0
 20 22  1  0
 20 23  1  0
 19 24  1  0
 19 25  1  0
 18 26  1  0
 18 27  1  0
  1 28  1  0
  1 29  1  0
M  END
$$$$
