
     RDKit          3D

 29 28  0  0  0  0  0  0  0  0999 V2000
    1.8234    2.4999  -20.7409 C   0  0  0  0  0  0  0  0  0  0  0  0
    2.0616    2.1602  -19.2428 C   0  0  0  0  0  0  0  0  0  0  0  0
    1.2257    0.9481  -18.9826 C   0  0  0  0  0  0  0  0  0  0  0  0
    1.0690    0.5221  -17.5729 C   0  0  0  0  0  0  0  0  0  0  0  0
    0.0812   -0.5689  -17.3401 C   0  0  0  0  0  0  0  0  0  0  0  0
    0.4546   -1.7699  -17.9028 F   0  0  0  0  0  0  0  0  0  0  0  0
   -1.1651   -0.2364  -17.7367 F   0  0  0  0  0  0  0  0  0  0  0  0
   -0.0186   -0.9016  -15.5488 S   0  0  0  0  0  0  0  0  0  0  0  0
    1.3699   -1.1688  -15.0361 O   0  0  0  0  0  0  0  0  0  0  0  0
   -0.6220    0.2586  -14.8341 O   0  0  0  0  0  0  0  0  0  0  0  0
   -0.9591   -2.2659  -15.3056 O   0  0  0  0  0  0  0  0  0  0  0  0
    2.3450    0.1553  -17.1082 F   0  0  0  0  0  0  0  0  0  0  0  0
    0.6915    1.6596  -16.8317 F   0  0  0  0  0  0  0  0  0  0  0  0
    1.8117   -0.0904  -19.7396 F   0  0  0  0  0  0  0  0  0  0  0  0
    0.0086    1.1625  -19.6174 F   0  0  0  0  0  0  0  0  0  0  0  0
    1.5718    3.2782  -18.5486 F   0  0  0  0  0  0  0  0  0  0  0  0
    3.3727    1.9217  -18.9784 F   0  0  0  0  0  0  0  0  0  0  0  0
    2.2318    3.9046  -20.9680 C   0  0  0  0  0  0  0  0  0  0  0  0
    1.9223    4.5373  -22.2568 C   0  0  0  0  0  0  0  0  0  0  0  0
    2.3190    5.9453  -22.4822 C   0  0  0  0  0  0  0  0  0  0  0  0
    1.7174    6.6670  -21.4463 F   0  0  0  0  0  0  0  0  0  0  0  0
    1.7836    6.5339  -23.6163 F   0  0  0  0  0  0  0  0  0  0  0  0
    3.6582    6.2164  -22.3322 F   0  0  0  0  0  0  0  0  0  0  0  0
    2.4467    3.8001  -23.3120 F   0  0  0  0  0  0  0  0  0  0  0  0
    0.5494    4.4865  -22.4468 F   0  0  0  0  0  0  0  0  0  0  0  0
    3.5855    4.0113  -20.6856 F   0  0  0  0  0  0  0  0  0  0  0  0
    1.6172    4.6762  -19.9857 F   0  0  0  0  0  0  0  0  0  0  0  0
    0.4693    2.2727  -20.9218 F   0  0  0  0  0  0  0  0  0  0  0  0
    2.4780    1.5527  -21.4417 F   0  0  0  0  0  0  0  0  0  0  0  0
  1  2  1  0
  2  3  1  0
  3  4  1  0
  4  5  1  0
  5  6  1  0
  5  7  1  0
  5  8  1  0
  8  9  2  0
  8 10  2  0
  8 11  1  0
  4 12  1  0
  4 13  1  0
  3 14  1  0
  3 15  1  0
  2 16  1  0
  2 17  1  0
  1 18  1  0
 18 19  1  0
 19 20  1  0
 20 21  1  0
 20 22  1  0
 20 23  1  0
 19 24  1  0
 19 25  1  0
 18 26  1  0
 18 27  1  0
  1 28  1  0
  1 29  1  0
M  END
$$$$
