
     RDKit          3D

 29 28  0  0  0  0  0  0  0  0999 V2000
   -6.2861   -2.3815  -10.6357 C   0  0  0  0  0  0  0  0  0  0  0  0
   -4.7977   -1.9674  -10.8079 C   0  0  0  0  0  0  0  0  0  0  0  0
   -4.5492   -2.0181  -12.2814 C   0  0  0  0  0  0  0  0  0  0  0  0
   -3.1460   -1.8902  -12.7374 C   0  0  0  0  0  0  0  0  0  0  0  0
   -2.9292   -2.0750  -14.2000 C   0  0  0  0  0  0  0  0  0  0  0  0
   -3.5598   -1.1207  -14.9681 F   0  0  0  0  0  0  0  0  0  0  0  0
   -3.2654   -3.3110  -14.6243 F   0  0  0  0  0  0  0  0  0  0  0  0
   -1.1528   -1.8699  -14.5630 S   0  0  0  0  0  0  0  0  0  0  0  0
   -0.3793   -2.8521  -13.7268 O   0  0  0  0  0  0  0  0  0  0  0  0
   -0.8853   -2.0969  -16.0115 O   0  0  0  0  0  0  0  0  0  0  0  0
   -0.6922   -0.3160  -14.1405 O   0  0  0  0  0  0  0  0  0  0  0  0
   -2.6878   -0.6294  -12.3144 F   0  0  0  0  0  0  0  0  0  0  0  0
   -2.3875   -2.8434  -12.0289 F   0  0  0  0  0  0  0  0  0  0  0  0
   -5.3349   -0.9846  -12.8376 F   0  0  0  0  0  0  0  0  0  0  0  0
   -5.1620   -3.1750  -12.7469 F   0  0  0  0  0  0  0  0  0  0  0  0
   -4.0769   -2.9655  -10.1327 F   0  0  0  0  0  0  0  0  0  0  0  0
   -4.5546   -0.7275  -10.3086 F   0  0  0  0  0  0  0  0  0  0  0  0
   -6.5013   -2.7594   -9.2206 C   0  0  0  0  0  0  0  0  0  0  0  0
   -7.7454   -3.4446   -8.8472 C   0  0  0  0  0  0  0  0  0  0  0  0
   -7.9265   -3.8993   -7.4503 C   0  0  0  0  0  0  0  0  0  0  0  0
   -6.8912   -4.8118   -7.2237 F   0  0  0  0  0  0  0  0  0  0  0  0
   -9.0610   -4.6606   -7.2210 F   0  0  0  0  0  0  0  0  0  0  0  0
   -7.7327   -2.9412   -6.4839 F   0  0  0  0  0  0  0  0  0  0  0  0
   -8.8549   -2.6690   -9.1623 F   0  0  0  0  0  0  0  0  0  0  0  0
   -7.8746   -4.5738   -9.6420 F   0  0  0  0  0  0  0  0  0  0  0  0
   -6.3142   -1.6290   -8.4391 F   0  0  0  0  0  0  0  0  0  0  0  0
   -5.4552   -3.6024   -8.8559 F   0  0  0  0  0  0  0  0  0  0  0  0
   -6.4446   -3.4295  -11.5270 F   0  0  0  0  0  0  0  0  0  0  0  0
   -7.0124   -1.3495  -11.1094 F   0  0  0  0  0  0  0  0  0  0  0  0
  1  2  1  0
  2  3  1  0
  3  4  1  0
  4  5  1  0
  5  6  1  0
  5  7  1  0
  5  8  1  0
  8  9  2  0
  8 10  2  0
  8 11  1  0
  4 12  1  0
  4 13  1  0
  3 14  1  0
  3 15  1  0
  2 16  1  0
  2 17  1  0
  1 18  1  0
 18 19  1  0
 19 20  1  0
 20 21  1  0
 20 22  1  0
 20 23  1  0
 19 24  1  0
 19 25  1  0
 18 26  1  0
 18 27  1  0
  1 28  1  0
  1 29  1  0
M  END
$$$$
