
     RDKit          3D

 29 28  0  0  0  0  0  0  0  0999 V2000
   -1.4706   -0.5320  -14.8891 C   0  0  0  0  0  0  0  0  0  0  0  0
   -2.6720   -0.1073  -13.9989 C   0  0  0  0  0  0  0  0  0  0  0  0
   -2.7621   -1.1604  -12.9413 C   0  0  0  0  0  0  0  0  0  0  0  0
   -3.9020   -1.0798  -11.9993 C   0  0  0  0  0  0  0  0  0  0  0  0
   -4.0107   -2.2051  -11.0285 C   0  0  0  0  0  0  0  0  0  0  0  0
   -3.0867   -2.1348  -10.0089 F   0  0  0  0  0  0  0  0  0  0  0  0
   -3.9552   -3.4144  -11.6247 F   0  0  0  0  0  0  0  0  0  0  0  0
   -5.6328   -2.1127  -10.1981 S   0  0  0  0  0  0  0  0  0  0  0  0
   -6.7094   -2.2514  -11.2393 O   0  0  0  0  0  0  0  0  0  0  0  0
   -5.7585   -3.1884   -9.1744 O   0  0  0  0  0  0  0  0  0  0  0  0
   -5.7777   -0.6145   -9.4636 O   0  0  0  0  0  0  0  0  0  0  0  0
   -3.7998    0.1543  -11.3321 F   0  0  0  0  0  0  0  0  0  0  0  0
   -5.0790   -1.0142  -12.7716 F   0  0  0  0  0  0  0  0  0  0  0  0
   -1.5425   -1.0954  -12.2318 F   0  0  0  0  0  0  0  0  0  0  0  0
   -2.6904   -2.3847  -13.5943 F   0  0  0  0  0  0  0  0  0  0  0  0
   -3.7792   -0.1520  -14.8613 F   0  0  0  0  0  0  0  0  0  0  0  0
   -2.4904    1.1243  -13.4549 F   0  0  0  0  0  0  0  0  0  0  0  0
   -1.5264    0.2484  -16.1458 C   0  0  0  0  0  0  0  0  0  0  0  0
   -0.4549    0.0819  -17.1364 C   0  0  0  0  0  0  0  0  0  0  0  0
   -0.5292    0.8304  -18.4111 C   0  0  0  0  0  0  0  0  0  0  0  0
   -0.4580    2.1796  -18.0498 F   0  0  0  0  0  0  0  0  0  0  0  0
   -1.7457    0.7537  -19.0693 F   0  0  0  0  0  0  0  0  0  0  0  0
    0.5389    0.6646  -19.2604 F   0  0  0  0  0  0  0  0  0  0  0  0
    0.7867    0.3635  -16.5789 F   0  0  0  0  0  0  0  0  0  0  0  0
   -0.3851   -1.2603  -17.4789 F   0  0  0  0  0  0  0  0  0  0  0  0
   -1.6811    1.5866  -15.8159 F   0  0  0  0  0  0  0  0  0  0  0  0
   -2.7175   -0.0846  -16.7849 F   0  0  0  0  0  0  0  0  0  0  0  0
   -1.6527   -1.8935  -15.0654 F   0  0  0  0  0  0  0  0  0  0  0  0
   -0.3723   -0.3783  -14.1231 F   0  0  0  0  0  0  0  0  0  0  0  0
  1  2  1  0
  2  3  1  0
  3  4  1  0
  4  5  1  0
  5  6  1  0
  5  7  1  0
  5  8  1  0
  8  9  2  0
  8 10  2  0
  8 11  1  0
  4 12  1  0
  4 13  1  0
  3 14  1  0
  3 15  1  0
  2 16  1  0
  2 17  1  0
  1 18  1  0
 18 19  1  0
 19 20  1  0
 20 21  1  0
 20 22  1  0
 20 23  1  0
 19 24  1  0
 19 25  1  0
 18 26  1  0
 18 27  1  0
  1 28  1  0
  1 29  1  0
M  END
$$$$
