
     RDKit          3D

 29 28  0  0  0  0  0  0  0  0999 V2000
   -2.0915   -1.2539  -12.6736 C   0  0  0  0  0  0  0  0  0  0  0  0
   -2.1543   -2.2952  -13.8261 C   0  0  0  0  0  0  0  0  0  0  0  0
   -1.3598   -1.6902  -14.9389 C   0  0  0  0  0  0  0  0  0  0  0  0
   -1.7409   -2.0575  -16.3220 C   0  0  0  0  0  0  0  0  0  0  0  0
   -0.9895   -1.3559  -17.4006 C   0  0  0  0  0  0  0  0  0  0  0  0
    0.3567   -1.6491  -17.4047 F   0  0  0  0  0  0  0  0  0  0  0  0
   -1.1748   -0.0194  -17.3798 F   0  0  0  0  0  0  0  0  0  0  0  0
   -1.6006   -1.9368  -19.0187 S   0  0  0  0  0  0  0  0  0  0  0  0
   -1.1336   -3.3517  -19.2241 O   0  0  0  0  0  0  0  0  0  0  0  0
   -3.0884   -1.8680  -19.0714 O   0  0  0  0  0  0  0  0  0  0  0  0
   -0.9477   -0.9698  -20.2202 O   0  0  0  0  0  0  0  0  0  0  0  0
   -1.5984   -3.4525  -16.4328 F   0  0  0  0  0  0  0  0  0  0  0  0
   -3.1174   -1.7895  -16.4617 F   0  0  0  0  0  0  0  0  0  0  0  0
   -0.0177   -2.0557  -14.6935 F   0  0  0  0  0  0  0  0  0  0  0  0
   -1.3638   -0.3170  -14.7273 F   0  0  0  0  0  0  0  0  0  0  0  0
   -3.5175   -2.3724  -14.1536 F   0  0  0  0  0  0  0  0  0  0  0  0
   -1.6440   -3.4976  -13.4523 F   0  0  0  0  0  0  0  0  0  0  0  0
   -3.2072   -1.5281  -11.7401 C   0  0  0  0  0  0  0  0  0  0  0  0
   -3.3874   -0.6589  -10.5701 C   0  0  0  0  0  0  0  0  0  0  0  0
   -4.5703   -0.8548   -9.7021 C   0  0  0  0  0  0  0  0  0  0  0  0
   -5.6752   -0.6698  -10.5393 F   0  0  0  0  0  0  0  0  0  0  0  0
   -4.7559    0.1161   -8.7315 F   0  0  0  0  0  0  0  0  0  0  0  0
   -4.7432   -2.1273   -9.2119 F   0  0  0  0  0  0  0  0  0  0  0  0
   -2.2721   -0.7013   -9.7418 F   0  0  0  0  0  0  0  0  0  0  0  0
   -3.4431    0.6552  -11.0099 F   0  0  0  0  0  0  0  0  0  0  0  0
   -3.1279   -2.8573  -11.3519 F   0  0  0  0  0  0  0  0  0  0  0  0
   -4.3867   -1.4581  -12.4761 F   0  0  0  0  0  0  0  0  0  0  0  0
   -2.1892   -0.0343  -13.3223 F   0  0  0  0  0  0  0  0  0  0  0  0
   -0.8426   -1.3338  -12.1729 F   0  0  0  0  0  0  0  0  0  0  0  0
  1  2  1  0
  2  3  1  0
  3  4  1  0
  4  5  1  0
  5  6  1  0
  5  7  1  0
  5  8  1  0
  8  9  2  0
  8 10  2  0
  8 11  1  0
  4 12  1  0
  4 13  1  0
  3 14  1  0
  3 15  1  0
  2 16  1  0
  2 17  1  0
  1 18  1  0
 18 19  1  0
 19 20  1  0
 20 21  1  0
 20 22  1  0
 20 23  1  0
 19 24  1  0
 19 25  1  0
 18 26  1  0
 18 27  1  0
  1 28  1  0
  1 29  1  0
M  END
$$$$
