
     RDKit          3D

 29 28  0  0  0  0  0  0  0  0999 V2000
   -1.5701   -1.4298  -16.3995 C   0  0  0  0  0  0  0  0  0  0  0  0
   -0.1821   -1.1559  -17.0437 C   0  0  0  0  0  0  0  0  0  0  0  0
   -0.4770   -0.8149  -18.4694 C   0  0  0  0  0  0  0  0  0  0  0  0
    0.6518   -0.8668  -19.4266 C   0  0  0  0  0  0  0  0  0  0  0  0
    0.3323   -0.4358  -20.8167 C   0  0  0  0  0  0  0  0  0  0  0  0
    0.0608    0.9111  -20.9197 F   0  0  0  0  0  0  0  0  0  0  0  0
   -0.6669   -1.1556  -21.3686 F   0  0  0  0  0  0  0  0  0  0  0  0
    1.8002   -0.6996  -21.8678 S   0  0  0  0  0  0  0  0  0  0  0  0
    1.5931    0.0298  -23.1668 O   0  0  0  0  0  0  0  0  0  0  0  0
    3.0287   -0.2050  -21.1845 O   0  0  0  0  0  0  0  0  0  0  0  0
    1.9500   -2.3378  -22.1829 O   0  0  0  0  0  0  0  0  0  0  0  0
    1.6902   -0.0890  -18.8830 F   0  0  0  0  0  0  0  0  0  0  0  0
    1.1227   -2.1949  -19.4462 F   0  0  0  0  0  0  0  0  0  0  0  0
   -1.0316    0.4839  -18.4451 F   0  0  0  0  0  0  0  0  0  0  0  0
   -1.5457   -1.6146  -18.8550 F   0  0  0  0  0  0  0  0  0  0  0  0
    0.4987   -2.3796  -16.9405 F   0  0  0  0  0  0  0  0  0  0  0  0
    0.4763   -0.1443  -16.4202 F   0  0  0  0  0  0  0  0  0  0  0  0
   -1.3560   -1.8309  -14.9907 C   0  0  0  0  0  0  0  0  0  0  0  0
   -2.5230   -2.1105  -14.1441 C   0  0  0  0  0  0  0  0  0  0  0  0
   -2.3111   -2.5373  -12.7427 C   0  0  0  0  0  0  0  0  0  0  0  0
   -1.4003   -3.5962  -12.8147 F   0  0  0  0  0  0  0  0  0  0  0  0
   -3.4097   -3.1196  -12.1318 F   0  0  0  0  0  0  0  0  0  0  0  0
   -1.6826   -1.6225  -11.9317 F   0  0  0  0  0  0  0  0  0  0  0  0
   -3.3822   -1.0187  -14.1041 F   0  0  0  0  0  0  0  0  0  0  0  0
   -3.2659   -3.1147  -14.7466 F   0  0  0  0  0  0  0  0  0  0  0  0
   -0.5358   -0.8856  -14.3930 F   0  0  0  0  0  0  0  0  0  0  0  0
   -0.5851   -2.9900  -15.0051 F   0  0  0  0  0  0  0  0  0  0  0  0
   -2.1126   -2.4282  -17.1912 F   0  0  0  0  0  0  0  0  0  0  0  0
   -2.3011   -0.3177  -16.6135 F   0  0  0  0  0  0  0  0  0  0  0  0
  1  2  1  0
  2  3  1  0
  3  4  1  0
  4  5  1  0
  5  6  1  0
  5  7  1  0
  5  8  1  0
  8  9  2  0
  8 10  2  0
  8 11  1  0
  4 12  1  0
  4 13  1  0
  3 14  1  0
  3 15  1  0
  2 16  1  0
  2 17  1  0
  1 18  1  0
 18 19  1  0
 19 20  1  0
 20 21  1  0
 20 22  1  0
 20 23  1  0
 19 24  1  0
 19 25  1  0
 18 26  1  0
 18 27  1  0
  1 28  1  0
  1 29  1  0
M  END
$$$$
