
     RDKit          3D

 29 28  0  0  0  0  0  0  0  0999 V2000
   -0.0622    4.0231   -8.2934 C   0  0  0  0  0  0  0  0  0  0  0  0
   -0.8007    5.0653   -9.1467 C   0  0  0  0  0  0  0  0  0  0  0  0
   -2.2463    5.2027   -8.6942 C   0  0  0  0  0  0  0  0  0  0  0  0
   -2.9733    5.8777   -9.7919 C   0  0  0  0  0  0  0  0  0  0  0  0
   -4.4060    6.1881   -9.5227 C   0  0  0  0  0  0  0  0  0  0  0  0
   -5.1569    5.0142   -9.4003 F   0  0  0  0  0  0  0  0  0  0  0  0
   -4.5257    6.7710   -8.2365 F   0  0  0  0  0  0  0  0  0  0  0  0
   -5.1685    7.3105  -10.6430 S   0  0  0  0  0  0  0  0  0  0  0  0
   -6.6788    7.3231  -10.4176 O   0  0  0  0  0  0  0  0  0  0  0  0
   -4.6312    8.6989  -10.5618 O   0  0  0  0  0  0  0  0  0  0  0  0
   -4.9289    6.6513  -12.2077 O   0  0  0  0  0  0  0  0  0  0  0  0
   -2.3290    7.0721  -10.0720 F   0  0  0  0  0  0  0  0  0  0  0  0
   -2.9675    5.1284  -10.9735 F   0  0  0  0  0  0  0  0  0  0  0  0
   -2.2390    6.1077   -7.6112 F   0  0  0  0  0  0  0  0  0  0  0  0
   -2.7439    4.0217   -8.2761 F   0  0  0  0  0  0  0  0  0  0  0  0
   -0.2269    6.3099   -9.0510 F   0  0  0  0  0  0  0  0  0  0  0  0
   -0.6959    4.6435  -10.4541 F   0  0  0  0  0  0  0  0  0  0  0  0
    1.0847    3.5838   -9.1331 C   0  0  0  0  0  0  0  0  0  0  0  0
    1.8417    2.3885   -8.7043 C   0  0  0  0  0  0  0  0  0  0  0  0
    2.8535    1.8386   -9.6435 C   0  0  0  0  0  0  0  0  0  0  0  0
    4.1190    2.3338   -9.4367 F   0  0  0  0  0  0  0  0  0  0  0  0
    2.4969    2.3001  -10.9326 F   0  0  0  0  0  0  0  0  0  0  0  0
    2.8754    0.4668   -9.7487 F   0  0  0  0  0  0  0  0  0  0  0  0
    2.4153    2.5652   -7.4538 F   0  0  0  0  0  0  0  0  0  0  0  0
    0.8893    1.3696   -8.5206 F   0  0  0  0  0  0  0  0  0  0  0  0
    0.5790    3.3728  -10.4209 F   0  0  0  0  0  0  0  0  0  0  0  0
    2.0257    4.6112   -9.3002 F   0  0  0  0  0  0  0  0  0  0  0  0
   -0.9655    3.0075   -8.0632 F   0  0  0  0  0  0  0  0  0  0  0  0
    0.2750    4.5644   -7.0726 F   0  0  0  0  0  0  0  0  0  0  0  0
  1  2  1  0
  2  3  1  0
  3  4  1  0
  4  5  1  0
  5  6  1  0
  5  7  1  0
  5  8  1  0
  8  9  2  0
  8 10  2  0
  8 11  1  0
  4 12  1  0
  4 13  1  0
  3 14  1  0
  3 15  1  0
  2 16  1  0
  2 17  1  0
  1 18  1  0
 18 19  1  0
 19 20  1  0
 20 21  1  0
 20 22  1  0
 20 23  1  0
 19 24  1  0
 19 25  1  0
 18 26  1  0
 18 27  1  0
  1 28  1  0
  1 29  1  0
M  END
$$$$
