
     RDKit          3D

 29 28  0  0  0  0  0  0  0  0999 V2000
    0.2507    4.5890   -8.8327 C   0  0  0  0  0  0  0  0  0  0  0  0
   -1.2691    4.4490   -9.0057 C   0  0  0  0  0  0  0  0  0  0  0  0
   -1.9424    5.8121   -8.9608 C   0  0  0  0  0  0  0  0  0  0  0  0
   -3.3075    5.6302   -9.5015 C   0  0  0  0  0  0  0  0  0  0  0  0
   -4.1606    6.8522   -9.5260 C   0  0  0  0  0  0  0  0  0  0  0  0
   -4.6026    7.1786   -8.2395 F   0  0  0  0  0  0  0  0  0  0  0  0
   -3.3657    7.9718   -9.8766 F   0  0  0  0  0  0  0  0  0  0  0  0
   -5.5011    6.8259  -10.6655 S   0  0  0  0  0  0  0  0  0  0  0  0
   -5.8730    5.3821  -10.9961 O   0  0  0  0  0  0  0  0  0  0  0  0
   -6.7064    7.5655  -10.1930 O   0  0  0  0  0  0  0  0  0  0  0  0
   -4.8973    7.5040  -12.1201 O   0  0  0  0  0  0  0  0  0  0  0  0
   -3.2030    5.1635  -10.8020 F   0  0  0  0  0  0  0  0  0  0  0  0
   -4.0400    4.6759   -8.7870 F   0  0  0  0  0  0  0  0  0  0  0  0
   -1.2560    6.6246   -9.8884 F   0  0  0  0  0  0  0  0  0  0  0  0
   -1.8463    6.3667   -7.7359 F   0  0  0  0  0  0  0  0  0  0  0  0
   -1.6001    3.8738  -10.2087 F   0  0  0  0  0  0  0  0  0  0  0  0
   -1.7008    3.6149   -7.9977 F   0  0  0  0  0  0  0  0  0  0  0  0
    0.8024    3.2570   -9.1998 C   0  0  0  0  0  0  0  0  0  0  0  0
    2.2706    3.1181   -9.3044 C   0  0  0  0  0  0  0  0  0  0  0  0
    2.8136    1.7837   -9.6684 C   0  0  0  0  0  0  0  0  0  0  0  0
    2.1196    1.1681  -10.6828 F   0  0  0  0  0  0  0  0  0  0  0  0
    2.6145    0.9491   -8.5433 F   0  0  0  0  0  0  0  0  0  0  0  0
    4.1680    1.7440   -9.9074 F   0  0  0  0  0  0  0  0  0  0  0  0
    2.8202    4.0857  -10.1325 F   0  0  0  0  0  0  0  0  0  0  0  0
    2.7812    3.4088   -8.0262 F   0  0  0  0  0  0  0  0  0  0  0  0
    0.3191    2.3492   -8.2507 F   0  0  0  0  0  0  0  0  0  0  0  0
    0.2722    2.7954  -10.4142 F   0  0  0  0  0  0  0  0  0  0  0  0
    0.4580    4.8967   -7.5049 F   0  0  0  0  0  0  0  0  0  0  0  0
    0.7168    5.6464   -9.5822 F   0  0  0  0  0  0  0  0  0  0  0  0
  1  2  1  0
  2  3  1  0
  3  4  1  0
  4  5  1  0
  5  6  1  0
  5  7  1  0
  5  8  1  0
  8  9  2  0
  8 10  2  0
  8 11  1  0
  4 12  1  0
  4 13  1  0
  3 14  1  0
  3 15  1  0
  2 16  1  0
  2 17  1  0
  1 18  1  0
 18 19  1  0
 19 20  1  0
 20 21  1  0
 20 22  1  0
 20 23  1  0
 19 24  1  0
 19 25  1  0
 18 26  1  0
 18 27  1  0
  1 28  1  0
  1 29  1  0
M  END
$$$$
