
     RDKit          3D

 29 28  0  0  0  0  0  0  0  0999 V2000
    0.1019    4.1904   -8.5135 C   0  0  0  0  0  0  0  0  0  0  0  0
   -0.8558    4.7982   -9.5492 C   0  0  0  0  0  0  0  0  0  0  0  0
   -2.1991    5.1218   -8.9134 C   0  0  0  0  0  0  0  0  0  0  0  0
   -3.0386    5.7206   -9.9743 C   0  0  0  0  0  0  0  0  0  0  0  0
   -4.3448    6.2809   -9.5252 C   0  0  0  0  0  0  0  0  0  0  0  0
   -5.1549    5.2811   -8.9765 F   0  0  0  0  0  0  0  0  0  0  0  0
   -4.1295    7.1476   -8.4248 F   0  0  0  0  0  0  0  0  0  0  0  0
   -5.2266    7.2197  -10.7241 S   0  0  0  0  0  0  0  0  0  0  0  0
   -5.1635    6.5201  -12.0801 O   0  0  0  0  0  0  0  0  0  0  0  0
   -6.6466    7.4844  -10.3547 O   0  0  0  0  0  0  0  0  0  0  0  0
   -4.3575    8.6864  -10.9074 O   0  0  0  0  0  0  0  0  0  0  0  0
   -2.3228    6.7467  -10.5700 F   0  0  0  0  0  0  0  0  0  0  0  0
   -3.3510    4.8055  -10.9856 F   0  0  0  0  0  0  0  0  0  0  0  0
   -1.9574    6.1483   -7.9755 F   0  0  0  0  0  0  0  0  0  0  0  0
   -2.7086    4.0516   -8.2714 F   0  0  0  0  0  0  0  0  0  0  0  0
   -0.3671    5.9676  -10.0793 F   0  0  0  0  0  0  0  0  0  0  0  0
   -0.9636    3.8769  -10.5680 F   0  0  0  0  0  0  0  0  0  0  0  0
    1.2138    3.6104   -9.3139 C   0  0  0  0  0  0  0  0  0  0  0  0
    1.8295    2.3532   -8.8385 C   0  0  0  0  0  0  0  0  0  0  0  0
    2.8529    1.7145   -9.7062 C   0  0  0  0  0  0  0  0  0  0  0  0
    3.4432    0.6117   -9.1362 F   0  0  0  0  0  0  0  0  0  0  0  0
    3.9047    2.6511   -9.8420 F   0  0  0  0  0  0  0  0  0  0  0  0
    2.4479    1.4432  -10.9929 F   0  0  0  0  0  0  0  0  0  0  0  0
    2.3261    2.4799   -7.5495 F   0  0  0  0  0  0  0  0  0  0  0  0
    0.7799    1.4230   -8.7280 F   0  0  0  0  0  0  0  0  0  0  0  0
    0.7172    3.4207  -10.6085 F   0  0  0  0  0  0  0  0  0  0  0  0
    2.2624    4.5276   -9.4817 F   0  0  0  0  0  0  0  0  0  0  0  0
   -0.6212    3.2277   -7.8421 F   0  0  0  0  0  0  0  0  0  0  0  0
    0.4741    5.1468   -7.5948 F   0  0  0  0  0  0  0  0  0  0  0  0
  1  2  1  0
  2  3  1  0
  3  4  1  0
  4  5  1  0
  5  6  1  0
  5  7  1  0
  5  8  1  0
  8  9  2  0
  8 10  2  0
  8 11  1  0
  4 12  1  0
  4 13  1  0
  3 14  1  0
  3 15  1  0
  2 16  1  0
  2 17  1  0
  1 18  1  0
 18 19  1  0
 19 20  1  0
 20 21  1  0
 20 22  1  0
 20 23  1  0
 19 24  1  0
 19 25  1  0
 18 26  1  0
 18 27  1  0
  1 28  1  0
  1 29  1  0
M  END
$$$$
